*SPEF "IEEE 1481-2009" 
*DESIGN 
*DATE 
*VENDOR 
*PROGRAM 
*VERSION "0.0"
*DESIGN_FLOW
*DIVIDER /
*DELIMITER :
*BUS_DELIMITER <>
*T_UNIT 1 PS
*C_UNIT 1 FF
*R_UNIT 1 KOHM
*L_UNIT 1 UH

*NAME_MAP

*1 DFFSR_4
*2 DFFSR_3
*3 INVX8_5
*4 BUFX4_74
*5 OAI21X1_52
*6 OAI21X1_90
*7 INVX1_38
*8 OAI21X1_53
*9 NOR2X1_62
*10 NAND2X1_65
*11 OAI21X1_61
*12 NAND2X1_68
*13 NAND2X1_117
*14 NAND3X1_73
*15 NOR2X1_115
*16 NAND2X1_118
*17 AND2X2_12
*18 NOR2X1_64
*19 FILL_0_0_0
*20 FILL_0_0_1
*21 FILL_0_0_2
*22 OR2X2_4
*23 NOR2X1_123
*24 INVX1_58
*25 NOR2X1_117
*26 NAND3X1_79
*27 NAND3X1_82
*28 INVX1_52
*29 NOR2X1_107
*30 NAND3X1_55
*31 NAND3X1_58
*32 INVX1_42
*33 NOR2X1_79
*34 NOR2X1_81
*35 NAND2X1_69
*36 NAND3X1_66
*37 NOR2X1_80
*38 NAND3X1_56
*39 NAND3X1_75
*40 NOR2X1_111
*41 NAND2X1_110
*42 AND2X2_21
*43 INVX1_49
*44 NAND3X1_78
*45 OAI21X1_126
*46 OR2X2_10
*47 NAND3X1_77
*48 INVX1_55
*49 NOR2X1_114
*50 FILL_0_1_0
*51 FILL_0_1_1
*52 FILL_0_1_2
*53 NOR3X1_10
*54 AND2X2_22
*55 NAND3X1_80
*56 NOR2X1_118
*57 AOI21X1_39
*58 AOI21X1_41
*59 AND2X2_17
*60 NAND2X1_95
*61 AND2X2_18
*62 NAND2X1_116
*63 AOI22X1_18
*64 NAND2X1_119
*65 NOR2X1_101
*66 NAND3X1_68
*67 OAI21X1_102
*68 NOR2X1_100
*69 NAND2X1_91
*70 AOI21X1_47
*71 AOI22X1_22
*72 OAI21X1_67
*73 NOR2X1_90
*74 NOR2X1_84
*75 NOR2X1_105
*76 NOR2X1_87
*77 NAND2X1_105
*78 FILL_0_2_0
*79 FILL_0_2_1
*80 FILL_0_2_2
*81 NOR3X1_8
*82 NOR2X1_66
*83 OAI21X1_66
*84 OAI21X1_65
*85 NOR2X1_43
*86 OAI21X1_263
*87 NOR2X1_183
*88 NOR2X1_103
*89 NOR2X1_44
*90 OAI21X1_104
*91 INVX1_149
*92 OAI21X1_227
*93 AND2X2_41
*94 INVX1_109
*95 DFFPOSX1_49
*96 INVX1_205
*97 DFFPOSX1_53
*98 MUX2X1_35
*99 BUFX4_37
*100 AOI21X1_129
*101 NAND2X1_242
*102 INVX1_191
*103 FILL_1_1
*104 FILL_1_2
*105 DFFSR_2
*106 DFFSR_1
*107 DFFSR_5
*108 NAND2X1_93
*109 OAI21X1_89
*110 NOR2X1_53
*111 INVX1_54
*112 OAI21X1_49
*113 OAI21X1_79
*114 AND2X2_11
*115 OAI21X1_50
*116 OAI21X1_110
*117 FILL_1_0_0
*118 FILL_1_0_1
*119 FILL_1_0_2
*120 OAI21X1_111
*121 NOR2X1_124
*122 AND2X2_25
*123 NAND3X1_85
*124 OAI21X1_109
*125 NAND3X1_45
*126 NOR2X1_52
*127 OR2X2_11
*128 NOR2X1_116
*129 NAND2X1_106
*130 AND2X2_23
*131 OR2X2_12
*132 BUFX4_69
*133 NOR2X1_61
*134 OAI21X1_116
*135 NAND2X1_58
*136 NOR2X1_126
*137 NAND3X1_86
*138 AOI21X1_49
*139 NOR2X1_109
*140 NAND3X1_74
*141 NOR2X1_110
*142 NOR2X1_55
*143 NAND3X1_57
*144 AOI21X1_48
*145 NAND2X1_113
*146 FILL_1_1_0
*147 FILL_1_1_1
*148 FILL_1_1_2
*149 NOR3X1_9
*150 NOR3X1_7
*151 OAI21X1_115
*152 NOR2X1_119
*153 NAND3X1_84
*154 NOR2X1_121
*155 NAND3X1_61
*156 OAI21X1_125
*157 NAND3X1_83
*158 OAI21X1_123
*159 NAND3X1_60
*160 AOI22X1_24
*161 OAI22X1_9
*162 NOR3X1_11
*163 OAI22X1_10
*164 NAND2X1_115
*165 NAND2X1_114
*166 NAND2X1_120
*167 NAND3X1_64
*168 NAND3X1_76
*169 AOI22X1_19
*170 FILL_1_2_0
*171 FILL_1_2_1
*172 FILL_1_2_2
*173 NAND3X1_71
*174 AOI22X1_23
*175 NOR2X1_106
*176 NAND2X1_73
*177 NAND2X1_71
*178 NAND2X1_72
*179 NAND2X1_92
*180 NOR2X1_85
*181 OAI21X1_97
*182 NOR2X1_82
*183 NOR2X1_65
*184 NAND3X1_138
*185 AOI22X1_20
*186 NAND3X1_69
*187 AOI21X1_46
*188 OAI21X1_262
*189 AOI22X1_21
*190 NOR2X1_184
*191 AOI21X1_77
*192 NOR2X1_182
*193 NOR2X1_102
*194 NOR2X1_173
*195 OAI21X1_103
*196 OAI21X1_215
*197 INVX1_133
*198 NAND3X1_140
*199 NOR2X1_42
*200 FILL_2_1
*201 FILL_2_2
*202 DFFSR_6
*203 NOR2X1_49
*204 INVX1_3
*205 NOR2X1_2
*206 INVX8_1
*207 BUFX4_7
*208 BUFX4_50
*209 NOR2X1_3
*210 OAI21X1_59
*211 NAND2X1_60
*212 MUX2X1_7
*213 BUFX4_52
*214 BUFX4_13
*215 AOI22X1_1
*216 NOR2X1_63
*217 OAI21X1_63
*218 OAI21X1_62
*219 OAI21X1_78
*220 OAI21X1_108
*221 BUFX4_5
*222 NOR2X1_50
*223 FILL_2_0_0
*224 FILL_2_0_1
*225 FILL_2_0_2
*226 INVX1_37
*227 OR2X2_3
*228 NOR2X1_125
*229 MUX2X1_8
*230 NOR2X1_122
*231 OAI21X1_76
*232 NAND3X1_81
*233 INVX1_56
*234 INVX1_57
*235 OAI21X1_106
*236 OAI21X1_107
*237 NOR2X1_76
*238 OAI21X1_77
*239 NOR2X1_77
*240 NAND2X1_104
*241 AOI21X1_43
*242 OAI21X1_81
*243 OAI21X1_80
*244 INVX1_59
*245 BUFX4_12
*246 OAI21X1_117
*247 NAND3X1_53
*248 NOR2X1_75
*249 NAND2X1_88
*250 OAI21X1_87
*251 OAI21X1_86
*252 NOR2X1_86
*253 FILL_2_1_0
*254 FILL_2_1_1
*255 FILL_2_1_2
*256 AND2X2_24
*257 NAND3X1_87
*258 NOR2X1_128
*259 NAND3X1_63
*260 NAND3X1_89
*261 NAND3X1_72
*262 NAND2X1_94
*263 NOR2X1_113
*264 NOR2X1_120
*265 OAI22X1_6
*266 OAI21X1_127
*267 OR2X2_7
*268 NAND3X1_65
*269 AOI21X1_44
*270 NAND2X1_108
*271 BUFX4_59
*272 NOR2X1_93
*273 MUX2X1_21
*274 AND2X2_19
*275 BUFX4_27
*276 BUFX4_58
*277 NAND3X1_70
*278 NOR3X1_5
*279 FILL_2_2_0
*280 FILL_2_2_1
*281 FILL_2_2_2
*282 NAND2X1_83
*283 NAND3X1_43
*284 OAI21X1_112
*285 NAND2X1_86
*286 BUFX4_29
*287 NAND3X1_59
*288 NOR2X1_91
*289 BUFX4_61
*290 NOR2X1_179
*291 NOR2X1_41
*292 NAND2X1_43
*293 NOR2X1_73
*294 OAI21X1_264
*295 OR2X2_20
*296 OAI21X1_261
*297 NAND3X1_145
*298 NOR2X1_163
*299 OAI21X1_232
*300 OAI22X1_41
*301 NOR2X1_104
*302 NOR2X1_172
*303 OAI21X1_88
*304 NOR2X1_175
*305 OAI21X1_221
*306 AOI21X1_76
*307 INVX8_6
*308 BUFX4_40
*309 NOR2X1_8
*310 INVX1_5
*311 NOR2X1_5
*312 INVX1_7
*313 NOR2X1_10
*314 INVX1_6
*315 NOR2X1_6
*316 NOR2X1_22
*317 INVX1_4
*318 NOR2X1_4
*319 OR2X2_1
*320 NOR2X1_9
*321 NAND2X1_59
*322 NAND2X1_4
*323 NAND2X1_50
*324 NAND2X1_52
*325 BUFX2_16
*326 NAND2X1_67
*327 NAND3X1_157
*328 NAND2X1_51
*329 NAND3X1_156
*330 OAI21X1_308
*331 NAND3X1_44
*332 NAND2X1_48
*333 AOI21X1_52
*334 NAND2X1_23
*335 INVX2_10
*336 NAND2X1_112
*337 NAND2X1_53
*338 NOR2X1_74
*339 OAI21X1_48
*340 NAND2X1_49
*341 FILL_3_0_0
*342 FILL_3_0_1
*343 FILL_3_0_2
*344 INVX1_35
*345 OAI21X1_55
*346 OAI21X1_54
*347 OAI21X1_96
*348 BUFX4_51
*349 OAI21X1_51
*350 OAI21X1_82
*351 OAI21X1_83
*352 OAI21X1_118
*353 NOR2X1_112
*354 OAI21X1_121
*355 OAI21X1_122
*356 BUFX4_88
*357 OAI21X1_57
*358 OAI21X1_58
*359 NOR3X1_6
*360 NOR2X1_127
*361 OAI21X1_119
*362 NAND2X1_109
*363 NOR2X1_57
*364 OAI21X1_98
*365 BUFX4_68
*366 BUFX4_8
*367 NAND3X1_88
*368 FILL_3_1_0
*369 FILL_3_1_1
*370 FILL_3_1_2
*371 BUFX2_41
*372 NAND2X1_89
*373 NAND2X1_111
*374 AOI22X1_25
*375 AOI22X1_16
*376 INVX1_45
*377 AOI22X1_17
*378 OAI21X1_124
*379 OR2X2_8
*380 AOI22X1_15
*381 BUFX4_67
*382 NOR2X1_99
*383 OAI21X1_101
*384 NOR2X1_98
*385 NAND3X1_143
*386 NAND3X1_142
*387 NOR2X1_58
*388 NAND2X1_55
*389 OAI21X1_47
*390 AND2X2_10
*391 OAI21X1_56
*392 NAND2X1_41
*393 NOR2X1_89
*394 AOI21X1_37
*395 NAND2X1_97
*396 FILL_3_2_0
*397 FILL_3_2_1
*398 FILL_3_2_2
*399 INVX1_44
*400 NAND3X1_141
*401 NOR2X1_176
*402 NOR2X1_174
*403 NOR2X1_164
*404 OAI21X1_253
*405 NOR2X1_83
*406 INVX2_29
*407 NAND2X1_107
*408 AOI22X1_34
*409 INVX1_143
*410 NAND2X1_96
*411 NOR2X1_165
*412 NOR2X1_166
*413 NAND3X1_144
*414 NAND3X1_137
*415 NAND2X1_160
*416 OAI22X1_37
*417 AOI21X1_75
*418 NOR2X1_167
*419 INVX1_135
*420 OAI21X1_246
*421 NAND3X1_139
*422 NAND2X1_98
*423 OR2X2_9
*424 NOR2X1_45
*425 NOR2X1_170
*426 NOR2X1_169
*427 OAI21X1_216
*428 AND2X2_42
*429 NAND2X1_1
*430 NAND2X1_15
*431 NAND2X1_75
*432 NAND2X1_11
*433 NAND2X1_12
*434 NAND2X1_9
*435 AND2X2_1
*436 NOR2X1_59
*437 INVX1_2
*438 NAND2X1_13
*439 NOR2X1_1
*440 NAND2X1_61
*441 NAND3X1_51
*442 NOR2X1_94
*443 OAI21X1_19
*444 NAND2X1_21
*445 OAI21X1_18
*446 NAND2X1_77
*447 NOR2X1_211
*448 AOI21X1_91
*449 NAND2X1_101
*450 INVX1_47
*451 NAND2X1_3
*452 NAND2X1_39
*453 INVX1_40
*454 NAND3X1_54
*455 NAND2X1_5
*456 OAI21X1_99
*457 INVX1_51
*458 INVX2_27
*459 OAI21X1_93
*460 AOI21X1_45
*461 FILL_4_0_0
*462 FILL_4_0_1
*463 FILL_4_0_2
*464 OAI21X1_60
*465 OAI21X1_142
*466 OAI21X1_69
*467 BUFX4_89
*468 NAND3X1_67
*469 INVX1_50
*470 NOR2X1_95
*471 NOR2X1_78
*472 NOR2X1_88
*473 OAI21X1_95
*474 OAI21X1_94
*475 OAI21X1_120
*476 NOR2X1_108
*477 BUFX4_14
*478 INVX1_36
*479 OAI21X1_70
*480 NOR2X1_68
*481 OR2X2_6
*482 NAND3X1_47
*483 NOR2X1_72
*484 BUFX4_1
*485 INVX1_53
*486 OAI21X1_113
*487 OAI21X1_114
*488 NAND3X1_50
*489 NAND3X1_49
*490 FILL_4_1_0
*491 FILL_4_1_1
*492 FILL_4_1_2
*493 NAND3X1_52
*494 AOI22X1_14
*495 DFFPOSX1_67
*496 OAI21X1_265
*497 INVX2_30
*498 DFFPOSX1_60
*499 OAI21X1_245
*500 NOR2X1_46
*501 DFFPOSX1_62
*502 NAND2X1_47
*503 BUFX2_7
*504 AND2X2_9
*505 BUFX2_9
*506 BUFX2_8
*507 OAI21X1_105
*508 AND2X2_16
*509 NAND2X1_70
*510 OAI21X1_72
*511 AND2X2_15
*512 FILL_4_2_0
*513 FILL_4_2_1
*514 FILL_4_2_2
*515 OAI21X1_229
*516 NAND2X1_90
*517 AOI21X1_79
*518 NOR2X1_180
*519 OAI21X1_254
*520 OAI21X1_252
*521 NAND2X1_177
*522 NOR2X1_178
*523 OAI21X1_247
*524 OAI21X1_249
*525 OAI21X1_248
*526 OAI21X1_203
*527 INVX1_134
*528 OAI21X1_255
*529 NAND2X1_165
*530 OAI21X1_256
*531 NAND2X1_175
*532 BUFX4_30
*533 AOI21X1_78
*534 BUFX4_28
*535 INVX1_138
*536 INVX1_136
*537 NOR2X1_171
*538 OAI21X1_222
*539 DFFPOSX1_51
*540 OAI21X1_442
*541 BUFX4_2
*542 NOR2X1_56
*543 NOR2X1_15
*544 NOR2X1_16
*545 NOR2X1_67
*546 NOR2X1_23
*547 NOR2X1_48
*548 INVX1_34
*549 NOR2X1_70
*550 INVX2_1
*551 NAND3X1_18
*552 NAND3X1_5
*553 NAND2X1_2
*554 NAND3X1_2
*555 NAND3X1_1
*556 BUFX4_84
*557 OAI21X1_71
*558 NAND2X1_57
*559 NAND2X1_64
*560 NAND2X1_87
*561 NAND2X1_78
*562 NAND2X1_76
*563 OAI21X1_68
*564 NAND3X1_48
*565 NAND3X1_3
*566 NAND2X1_81
*567 OAI21X1_128
*568 NAND3X1_94
*569 NAND2X1_56
*570 INVX2_25
*571 FILL_5_0_0
*572 FILL_5_0_1
*573 FILL_5_0_2
*574 AOI21X1_42
*575 NOR2X1_54
*576 NAND2X1_103
*577 NOR2X1_206
*578 NOR2X1_47
*579 NAND2X1_62
*580 OAI21X1_75
*581 AND2X2_14
*582 NOR2X1_207
*583 NAND2X1_54
*584 NOR2X1_60
*585 NOR2X1_40
*586 AND2X2_20
*587 INVX4_3
*588 NAND3X1_62
*589 OAI21X1_74
*590 OAI22X1_8
*591 NAND2X1_80
*592 INVX1_74
*593 AND2X2_35
*594 OR2X2_5
*595 NOR2X1_71
*596 NAND2X1_82
*597 AND2X2_13
*598 OAI21X1_100
*599 NOR2X1_97
*600 OAI21X1_166
*601 FILL_5_1_0
*602 FILL_5_1_1
*603 FILL_5_1_2
*604 DFFPOSX1_36
*605 NAND2X1_152
*606 OAI21X1_200
*607 INVX1_41
*608 NOR2X1_69
*609 INVX1_120
*610 INVX1_110
*611 DFFPOSX1_61
*612 OAI22X1_40
*613 INVX1_130
*614 DFFPOSX1_66
*615 INVX1_68
*616 AOI21X1_80
*617 BUFX4_60
*618 INVX1_131
*619 NAND2X1_85
*620 NOR2X1_159
*621 DFFPOSX1_55
*622 OAI22X1_38
*623 FILL_5_2_0
*624 FILL_5_2_1
*625 FILL_5_2_2
*626 OAI21X1_258
*627 OAI21X1_257
*628 AOI22X1_39
*629 OAI21X1_250
*630 NOR2X1_181
*631 OAI21X1_260
*632 NAND3X1_136
*633 INVX1_142
*634 NOR2X1_177
*635 NOR2X1_161
*636 INVX1_140
*637 NAND2X1_155
*638 NAND2X1_158
*639 NOR2X1_160
*640 NOR2X1_162
*641 AOI22X1_38
*642 NAND2X1_161
*643 NAND2X1_159
*644 OAI21X1_244
*645 OAI21X1_220
*646 OAI21X1_219
*647 NOR2X1_168
*648 NAND2X1_162
*649 INVX1_137
*650 AOI22X1_36
*651 INVX1_106
*652 OR2X2_19
*653 OAI21X1_419
*654 FILL_6_1
*655 FILL_6_2
*656 NAND2X1_30
*657 NOR3X1_2
*658 NOR2X1_133
*659 NOR3X1_1
*660 NOR2X1_14
*661 NOR2X1_17
*662 BUFX4_85
*663 OAI21X1_6
*664 OAI21X1_7
*665 OAI21X1_2
*666 INVX1_16
*667 OAI21X1_17
*668 NAND2X1_22
*669 INVX8_2
*670 OAI22X1_7
*671 INVX1_48
*672 OAI21X1_151
*673 NAND2X1_102
*674 OAI21X1_313
*675 BUFX4_10
*676 NOR2X1_198
*677 NOR2X1_209
*678 NAND2X1_79
*679 NAND2X1_124
*680 OAI21X1_189
*681 OAI21X1_133
*682 FILL_6_0_0
*683 FILL_6_0_1
*684 FILL_6_0_2
*685 OAI21X1_307
*686 OAI21X1_305
*687 BUFX4_87
*688 OR2X2_22
*689 OAI22X1_20
*690 BUFX4_48
*691 BUFX4_49
*692 INVX1_63
*693 OAI21X1_144
*694 NOR3X1_13
*695 BUFX4_86
*696 OAI21X1_135
*697 BUFX4_11
*698 OAI21X1_143
*699 NOR2X1_51
*700 NAND3X1_46
*701 OAI22X1_19
*702 OAI21X1_140
*703 OAI21X1_131
*704 OAI21X1_132
*705 OAI21X1_149
*706 NOR2X1_96
*707 INVX1_111
*708 FILL_6_1_0
*709 FILL_6_1_1
*710 FILL_6_1_2
*711 BUFX4_9
*712 NAND2X1_192
*713 XOR2X1_1
*714 DFFPOSX1_65
*715 NOR2X1_152
*716 INVX1_144
*717 OAI21X1_259
*718 DFFPOSX1_63
*719 INVX1_141
*720 OAI21X1_251
*721 OAI22X1_35
*722 DFFPOSX1_39
*723 NAND2X1_176
*724 OAI22X1_34
*725 DFFPOSX1_38
*726 FILL_6_2_0
*727 FILL_6_2_1
*728 FILL_6_2_2
*729 DFFPOSX1_46
*730 OAI21X1_213
*731 OAI21X1_214
*732 NAND2X1_154
*733 BUFX4_62
*734 NOR2X1_39
*735 INVX1_67
*736 DFFPOSX1_64
*737 BUFX4_73
*738 OAI21X1_233
*739 OAI21X1_234
*740 NAND2X1_157
*741 DFFPOSX1_54
*742 DFFPOSX1_59
*743 AOI22X1_35
*744 DFFPOSX1_48
*745 FILL_7_1
*746 FILL_7_2
*747 OAI21X1_27
*748 INVX1_23
*749 DFFPOSX1_70
*750 INVX4_6
*751 BUFX4_22
*752 OAI21X1_137
*753 BUFX4_83
*754 NAND2X1_10
*755 NAND3X1_4
*756 INVX1_15
*757 NOR2X1_11
*758 OAI21X1_16
*759 NOR2X1_196
*760 OAI21X1_152
*761 NAND2X1_63
*762 NAND2X1_66
*763 NAND3X1_151
*764 AND2X2_27
*765 NAND2X1_193
*766 NAND3X1_150
*767 NAND3X1_158
*768 AND2X2_45
*769 OAI21X1_309
*770 NOR2X1_212
*771 NOR2X1_210
*772 INVX1_154
*773 FILL_7_0_0
*774 FILL_7_0_1
*775 FILL_7_0_2
*776 OAI21X1_310
*777 OAI21X1_129
*778 INVX1_62
*779 OAI21X1_306
*780 NOR2X1_197
*781 NAND2X1_74
*782 INVX1_39
*783 NAND3X1_154
*784 NOR3X1_14
*785 OAI21X1_187
*786 INVX1_153
*787 NOR2X1_92
*788 OAI21X1_145
*789 INVX1_118
*790 OAI21X1_1
*791 NAND3X1_101
*792 NOR2X1_139
*793 NAND3X1_95
*794 NOR3X1_12
*795 OAI21X1_165
*796 NOR2X1_140
*797 OAI21X1_148
*798 INVX1_112
*799 NAND3X1_96
*800 NAND2X1_125
*801 FILL_7_1_0
*802 FILL_7_1_1
*803 FILL_7_1_2
*804 MUX2X1_2
*805 OAI21X1_304
*806 DFFPOSX1_92
*807 INVX1_107
*808 XNOR2X1_1
*809 MUX2X1_9
*810 DFFPOSX1_37
*811 NAND2X1_153
*812 OAI21X1_201
*813 INVX2_39
*814 BUFX4_16
*815 OAI21X1_146
*816 INVX1_69
*817 OAI21X1_147
*818 OAI21X1_73
*819 NAND2X1_84
*820 DFFPOSX1_35
*821 INVX2_32
*822 NAND3X1_90
*823 FILL_7_2_0
*824 FILL_7_2_1
*825 FILL_7_2_2
*826 NAND2X1_151
*827 OAI21X1_199
*828 NOR2X1_129
*829 BUFX4_71
*830 OR2X2_13
*831 BUFX4_45
*832 DFFPOSX1_52
*833 OAI21X1_225
*834 OAI21X1_226
*835 OR2X2_18
*836 DFFPOSX1_58
*837 BUFX4_41
*838 OAI21X1_243
*839 OAI21X1_223
*840 OAI21X1_228
*841 OAI21X1_217
*842 OAI21X1_224
*843 OAI21X1_218
*844 DFFPOSX1_50
*845 AOI21X1_117
*846 OAI21X1_383
*847 NAND3X1_161
*848 NAND2X1_209
*849 DFFPOSX1_110
*850 INVX2_9
*851 OAI22X1_45
*852 NOR2X1_215
*853 AOI22X1_6
*854 NAND2X1_205
*855 NOR2X1_24
*856 NOR3X1_3
*857 BUFX4_82
*858 BUFX4_70
*859 AOI22X1_4
*860 BUFX4_80
*861 BUFX4_31
*862 OAI22X1_2
*863 BUFX4_72
*864 OAI21X1_134
*865 NOR2X1_201
*866 NAND3X1_152
*867 FILL_8_0_0
*868 FILL_8_0_1
*869 FILL_8_0_2
*870 AOI21X1_92
*871 OR2X2_14
*872 NOR2X1_203
*873 NAND3X1_155
*874 NOR2X1_132
*875 NAND2X1_196
*876 NAND2X1_122
*877 NOR2X1_208
*878 BUFX4_43
*879 OAI21X1_188
*880 NOR2X1_151
*881 NAND2X1_195
*882 OAI21X1_314
*883 NOR2X1_205
*884 NAND2X1_123
*885 NOR2X1_134
*886 NOR2X1_141
*887 NOR2X1_142
*888 NAND3X1_102
*889 NOR2X1_143
*890 OAI21X1_230
*891 NOR2X1_130
*892 NAND3X1_91
*893 INVX1_64
*894 NAND2X1_121
*895 NAND2X1_142
*896 DFFPOSX1_75
*897 FILL_8_1_0
*898 FILL_8_1_1
*899 FILL_8_1_2
*900 OAI21X1_266
*901 AOI22X1_40
*902 INVX1_139
*903 INVX1_108
*904 OAI21X1_164
*905 AOI21X1_60
*906 OAI21X1_91
*907 OAI21X1_92
*908 NAND2X1_100
*909 NOR2X1_191
*910 BUFX4_42
*911 OAI21X1_279
*912 DFFPOSX1_86
*913 INVX2_28
*914 BUFX4_36
*915 OAI21X1_44
*916 MUX2X1_24
*917 INVX1_147
*918 OAI21X1_85
*919 DFFPOSX1_83
*920 FILL_8_2_0
*921 FILL_8_2_1
*922 FILL_8_2_2
*923 OAI21X1_299
*924 NOR2X1_190
*925 OAI21X1_130
*926 NAND2X1_164
*927 AOI21X1_51
*928 AOI21X1_50
*929 INVX1_61
*930 BUFX4_44
*931 OAI21X1_202
*932 OAI21X1_204
*933 DFFPOSX1_40
*934 OAI21X1_211
*935 OAI21X1_212
*936 NAND2X1_156
*937 OAI22X1_36
*938 INVX1_132
*939 OAI21X1_206
*940 OAI21X1_205
*941 DFFPOSX1_47
*942 DFFPOSX1_41
*943 FILL_9_1
*944 FILL_9_2
*945 DFFPOSX1_117
*946 AOI21X1_118
*947 OAI22X1_50
*948 OAI21X1_385
*949 NAND3X1_12
*950 INVX2_6
*951 NAND2X1_206
*952 NAND3X1_17
*953 INVX1_157
*954 OAI21X1_375
*955 OAI21X1_373
*956 DFFPOSX1_68
*957 OAI21X1_183
*958 INVX1_117
*959 AOI21X1_9
*960 OAI21X1_374
*961 AND2X2_2
*962 OAI21X1_14
*963 OAI22X1_1
*964 AOI21X1_13
*965 OAI21X1_15
*966 OR2X2_27
*967 FILL_9_0_0
*968 FILL_9_0_1
*969 FILL_9_0_2
*970 INVX4_1
*971 NOR2X1_213
*972 BUFX4_81
*973 OR2X2_28
*974 NOR2X1_202
*975 NOR2X1_204
*976 NAND3X1_153
*977 OAI21X1_161
*978 OAI21X1_138
*979 NOR2X1_193
*980 NOR2X1_144
*981 NOR2X1_194
*982 NAND3X1_148
*983 NOR2X1_135
*984 AOI21X1_72
*985 AOI21X1_71
*986 BUFX4_79
*987 INVX1_65
*988 NOR2X1_131
*989 NAND3X1_93
*990 NOR2X1_136
*991 NAND3X1_92
*992 INVX4_4
*993 NOR2X1_187
*994 NOR2X1_145
*995 INVX2_40
*996 MUX2X1_10
*997 FILL_9_1_0
*998 FILL_9_1_1
*999 FILL_9_1_2
*1000 OAI21X1_278
*1001 NAND2X1_178
*1002 NAND2X1_190
*1003 OAI21X1_295
*1004 NOR2X1_186
*1005 AOI21X1_85
*1006 OAI21X1_294
*1007 NAND2X1_99
*1008 BUFX4_17
*1009 NAND3X1_146
*1010 OAI21X1_291
*1011 OAI21X1_302
*1012 NOR2X1_189
*1013 NAND2X1_191
*1014 AOI21X1_70
*1015 OAI21X1_300
*1016 OAI21X1_301
*1017 OAI21X1_272
*1018 OAI21X1_271
*1019 NAND2X1_42
*1020 DFFPOSX1_79
*1021 AOI21X1_82
*1022 NAND3X1_147
*1023 FILL_9_2_0
*1024 FILL_9_2_1
*1025 FILL_9_2_2
*1026 AOI21X1_81
*1027 NOR2X1_185
*1028 OAI21X1_277
*1029 OAI21X1_231
*1030 OAI21X1_136
*1031 OAI21X1_276
*1032 OAI21X1_275
*1033 OAI21X1_46
*1034 OAI21X1_207
*1035 OAI21X1_209
*1036 OAI21X1_208
*1037 OAI21X1_210
*1038 DFFPOSX1_44
*1039 BUFX4_25
*1040 INVX1_119
*1041 DFFPOSX1_45
*1042 INVX1_105
*1043 NOR2X1_146
*1044 OAI21X1_163
*1045 OAI21X1_162
*1046 INVX1_104
*1047 INVX1_195
*1048 OR2X2_41
*1049 FILL_10_1
*1050 DFFPOSX1_116
*1051 OAI21X1_384
*1052 INVX2_7
*1053 OAI21X1_382
*1054 AOI22X1_5
*1055 NAND3X1_15
*1056 DFFPOSX1_124
*1057 OAI21X1_40
*1058 NAND2X1_37
*1059 NOR2X1_7
*1060 AOI22X1_26
*1061 NAND3X1_13
*1062 NAND3X1_14
*1063 AOI22X1_29
*1064 BUFX2_12
*1065 OAI21X1_12
*1066 NOR2X1_20
*1067 NOR2X1_12
*1068 AOI21X1_12
*1069 NAND2X1_18
*1070 NAND3X1_16
*1071 AOI21X1_10
*1072 FILL_10_0_0
*1073 FILL_10_0_1
*1074 FILL_10_0_2
*1075 OAI21X1_13
*1076 NOR2X1_21
*1077 AOI22X1_28
*1078 INVX2_8
*1079 INVX2_38
*1080 INVX8_4
*1081 BUFX4_4
*1082 BUFX4_76
*1083 OR2X2_15
*1084 INVX2_34
*1085 INVX2_36
*1086 NOR2X1_195
*1087 OAI21X1_190
*1088 AND2X2_36
*1089 OAI21X1_139
*1090 OR2X2_17
*1091 NOR2X1_150
*1092 OAI21X1_185
*1093 OAI21X1_184
*1094 AOI21X1_61
*1095 INVX2_37
*1096 OAI22X1_28
*1097 OAI21X1_169
*1098 OAI21X1_179
*1099 MUX2X1_3
*1100 FILL_10_1_0
*1101 FILL_10_1_1
*1102 FILL_10_1_2
*1103 OAI21X1_298
*1104 INVX1_115
*1105 DFFPOSX1_89
*1106 AOI22X1_41
*1107 INVX1_46
*1108 OAI21X1_296
*1109 OAI21X1_292
*1110 OAI21X1_293
*1111 AOI21X1_83
*1112 NAND2X1_189
*1113 OAI22X1_42
*1114 OAI21X1_303
*1115 DFFPOSX1_91
*1116 AOI21X1_88
*1117 INVX1_125
*1118 NAND2X1_45
*1119 MUX2X1_5
*1120 OAI21X1_84
*1121 AOI21X1_40
*1122 INVX1_43
*1123 INVX4_2
*1124 FILL_10_2_0
*1125 FILL_10_2_1
*1126 FILL_10_2_2
*1127 INVX1_60
*1128 OAI21X1_280
*1129 NOR2X1_188
*1130 INVX2_43
*1131 OAI22X1_39
*1132 NAND2X1_163
*1133 NOR2X1_149
*1134 OAI21X1_45
*1135 NAND2X1_44
*1136 INVX1_150
*1137 DFFPOSX1_42
*1138 DFFPOSX1_43
*1139 INVX2_31
*1140 DFFPOSX1_126
*1141 BUFX4_23
*1142 XNOR2X1_10
*1143 XOR2X1_3
*1144 DFFPOSX1_127
*1145 FILL_11_1
*1146 BUFX4_6
*1147 DFFPOSX1_122
*1148 INVX2_20
*1149 OAI22X1_54
*1150 NOR2X1_223
*1151 OAI21X1_394
*1152 INVX1_162
*1153 OAI21X1_37
*1154 NOR2X1_37
*1155 NAND2X1_36
*1156 NAND2X1_38
*1157 AOI21X1_33
*1158 INVX1_32
*1159 NAND3X1_42
*1160 NOR2X1_38
*1161 OAI22X1_5
*1162 INVX1_8
*1163 DFFPOSX1_123
*1164 INVX1_1
*1165 OAI21X1_41
*1166 OAI21X1_4
*1167 OAI21X1_38
*1168 NAND3X1_41
*1169 AOI22X1_12
*1170 FILL_11_0_0
*1171 FILL_11_0_1
*1172 FILL_11_0_2
*1173 OAI21X1_42
*1174 AOI21X1_35
*1175 INVX1_31
*1176 NOR2X1_13
*1177 INVX1_156
*1178 NAND3X1_149
*1179 DFFPOSX1_109
*1180 OAI21X1_372
*1181 OAI21X1_346
*1182 OAI21X1_194
*1183 DFFPOSX1_88
*1184 AOI21X1_69
*1185 OAI21X1_186
*1186 AOI21X1_68
*1187 OAI22X1_27
*1188 OAI21X1_168
*1189 NOR2X1_147
*1190 INVX1_114
*1191 OAI21X1_181
*1192 DFFPOSX1_76
*1193 FILL_11_1_0
*1194 FILL_11_1_1
*1195 FILL_11_1_2
*1196 BUFX2_10
*1197 AOI21X1_87
*1198 AOI22X1_42
*1199 INVX1_151
*1200 AND2X2_44
*1201 OAI21X1_297
*1202 AOI21X1_86
*1203 AOI21X1_84
*1204 NAND2X1_179
*1205 OAI21X1_282
*1206 MUX2X1_26
*1207 DFFPOSX1_87
*1208 OAI21X1_281
*1209 OR2X2_21
*1210 INVX2_33
*1211 OAI21X1_268
*1212 OAI21X1_267
*1213 NAND3X1_133
*1214 NAND3X1_134
*1215 DFFPOSX1_77
*1216 FILL_11_2_0
*1217 FILL_11_2_1
*1218 FILL_11_2_2
*1219 INVX1_116
*1220 DFFPOSX1_56
*1221 DFFPOSX1_85
*1222 NAND2X1_46
*1223 DFFPOSX1_84
*1224 DFFPOSX1_136
*1225 OAI21X1_471
*1226 NAND2X1_212
*1227 OAI21X1_458
*1228 XNOR2X1_9
*1229 OAI21X1_473
*1230 NAND2X1_253
*1231 DFFPOSX1_138
*1232 OAI21X1_459
*1233 BUFX4_3
*1234 OR2X2_36
*1235 AOI21X1_115
*1236 AOI21X1_116
*1237 OAI22X1_49
*1238 DFFPOSX1_115
*1239 NAND2X1_6
*1240 AND2X2_8
*1241 NAND3X1_40
*1242 OAI21X1_34
*1243 AOI21X1_36
*1244 AOI22X1_13
*1245 DFFPOSX1_125
*1246 INVX1_30
*1247 AOI22X1_2
*1248 NOR2X1_25
*1249 NOR2X1_26
*1250 OAI22X1_3
*1251 NAND3X1_6
*1252 NAND3X1_39
*1253 AOI21X1_34
*1254 FILL_12_0_0
*1255 FILL_12_0_1
*1256 FILL_12_0_2
*1257 OAI21X1_39
*1258 AOI22X1_11
*1259 NOR2X1_35
*1260 NAND2X1_8
*1261 AOI21X1_65
*1262 OAI21X1_177
*1263 INVX1_29
*1264 OAI21X1_367
*1265 AOI21X1_114
*1266 DFFPOSX1_108
*1267 OAI21X1_370
*1268 INVX1_124
*1269 INVX4_7
*1270 BUFX4_78
*1271 OAI22X1_44
*1272 INVX2_24
*1273 INVX2_2
*1274 AND2X2_39
*1275 OAI22X1_33
*1276 OAI22X1_31
*1277 AOI21X1_66
*1278 AOI21X1_59
*1279 OAI21X1_173
*1280 FILL_12_1_0
*1281 FILL_12_1_1
*1282 FILL_12_1_2
*1283 OAI22X1_26
*1284 AOI21X1_58
*1285 AOI21X1_62
*1286 DFFPOSX1_90
*1287 OAI22X1_18
*1288 INVX2_42
*1289 XNOR2X1_6
*1290 NOR2X1_227
*1291 NAND2X1_148
*1292 NOR2X1_224
*1293 NAND3X1_164
*1294 NOR2X1_225
*1295 OAI21X1_270
*1296 OAI21X1_269
*1297 MUX2X1_4
*1298 NAND2X1_40
*1299 AOI21X1_38
*1300 OAI21X1_64
*1301 OAI21X1_273
*1302 OAI21X1_43
*1303 INVX1_33
*1304 FILL_12_2_0
*1305 FILL_12_2_1
*1306 FILL_12_2_2
*1307 MUX2X1_6
*1308 DFFPOSX1_93
*1309 AND2X2_40
*1310 DFFPOSX1_57
*1311 MUX2X1_25
*1312 INVX1_148
*1313 INVX1_188
*1314 AOI21X1_127
*1315 AOI22X1_58
*1316 BUFX4_63
*1317 NAND2X1_251
*1318 BUFX4_64
*1319 NAND2X1_250
*1320 OAI21X1_470
*1321 DFFPOSX1_135
*1322 INVX1_189
*1323 OAI21X1_472
*1324 DFFPOSX1_137
*1325 FILL_13_1
*1326 NOR3X1_15
*1327 NOR2X1_219
*1328 OAI21X1_379
*1329 INVX1_159
*1330 OAI21X1_381
*1331 AOI22X1_3
*1332 NAND3X1_7
*1333 INVX2_4
*1334 NAND2X1_207
*1335 NOR2X1_216
*1336 OAI22X1_46
*1337 DFFPOSX1_111
*1338 INVX2_12
*1339 NAND3X1_19
*1340 AOI22X1_27
*1341 NAND3X1_20
*1342 OAI21X1_20
*1343 NAND3X1_8
*1344 AOI21X1_4
*1345 AND2X2_3
*1346 AOI21X1_2
*1347 AOI21X1_32
*1348 NAND2X1_34
*1349 FILL_13_0_0
*1350 FILL_13_0_1
*1351 FILL_13_0_2
*1352 OAI21X1_33
*1353 AOI21X1_31
*1354 OAI21X1_32
*1355 OAI21X1_9
*1356 AOI21X1_1
*1357 BUFX4_33
*1358 OAI21X1_363
*1359 OAI21X1_365
*1360 OAI21X1_371
*1361 NAND2X1_204
*1362 OAI21X1_369
*1363 NAND2X1_203
*1364 INVX2_44
*1365 AOI21X1_113
*1366 OAI21X1_368
*1367 NAND2X1_202
*1368 OAI22X1_43
*1369 OAI21X1_366
*1370 DFFPOSX1_107
*1371 INVX1_91
*1372 OAI21X1_175
*1373 OAI21X1_3
*1374 NAND2X1_7
*1375 FILL_13_1_0
*1376 FILL_13_1_1
*1377 FILL_13_1_2
*1378 INVX8_3
*1379 OAI21X1_5
*1380 INVX1_113
*1381 OAI21X1_170
*1382 OAI22X1_25
*1383 INVX2_23
*1384 INVX1_128
*1385 OAI22X1_16
*1386 OAI22X1_17
*1387 MUX2X1_19
*1388 OAI21X1_197
*1389 INVX1_66
*1390 INVX1_126
*1391 XNOR2X1_7
*1392 NOR2X1_226
*1393 OR2X2_38
*1394 XNOR2X1_5
*1395 INVX2_26
*1396 DFFPOSX1_78
*1397 OAI21X1_274
*1398 DFFPOSX1_80
*1399 FILL_13_2_0
*1400 FILL_13_2_1
*1401 FILL_13_2_2
*1402 MUX2X1_23
*1403 INVX1_146
*1404 DFFPOSX1_82
*1405 MUX2X1_22
*1406 INVX1_145
*1407 OAI21X1_397
*1408 DFFPOSX1_81
*1409 NOR2X1_237
*1410 INVX1_186
*1411 OAI21X1_439
*1412 OAI21X1_438
*1413 INVX1_187
*1414 OAI21X1_445
*1415 AOI22X1_63
*1416 OAI21X1_440
*1417 OAI21X1_441
*1418 INVX4_8
*1419 INVX1_190
*1420 AOI21X1_132
*1421 NAND2X1_238
*1422 OAI21X1_448
*1423 FILL_14_1
*1424 FILL_14_2
*1425 FILL_14_3
*1426 OAI22X1_48
*1427 AND2X2_46
*1428 OAI21X1_377
*1429 NAND2X1_208
*1430 NAND3X1_160
*1431 NAND2X1_19
*1432 AND2X2_4
*1433 NAND3X1_38
*1434 NOR2X1_36
*1435 INVX1_28
*1436 OAI22X1_4
*1437 NOR2X1_218
*1438 OAI21X1_378
*1439 AOI21X1_16
*1440 OAI21X1_35
*1441 NAND3X1_37
*1442 OAI21X1_36
*1443 NOR2X1_28
*1444 INVX1_18
*1445 AOI21X1_7
*1446 BUFX4_75
*1447 NAND3X1_9
*1448 AOI21X1_8
*1449 BUFX4_38
*1450 BUFX4_39
*1451 BUFX2_11
*1452 NOR2X1_34
*1453 FILL_14_0_0
*1454 FILL_14_0_1
*1455 FILL_14_0_2
*1456 AOI22X1_50
*1457 AOI21X1_106
*1458 AOI22X1_49
*1459 OR2X2_25
*1460 OR2X2_23
*1461 OAI21X1_364
*1462 AOI21X1_112
*1463 BUFX4_54
*1464 OR2X2_24
*1465 OAI22X1_32
*1466 OAI21X1_362
*1467 DFFPOSX1_106
*1468 AOI21X1_111
*1469 INVX2_22
*1470 NAND2X1_16
*1471 AOI21X1_63
*1472 AND2X2_37
*1473 NAND2X1_143
*1474 NOR2X1_148
*1475 INVX1_9
*1476 AOI21X1_67
*1477 OAI21X1_160
*1478 FILL_14_1_0
*1479 FILL_14_1_1
*1480 FILL_14_1_2
*1481 OAI22X1_24
*1482 AOI21X1_56
*1483 INVX2_3
*1484 AOI21X1_57
*1485 OAI21X1_191
*1486 OAI21X1_195
*1487 AOI22X1_33
*1488 AOI21X1_74
*1489 NAND2X1_150
*1490 INVX1_127
*1491 OAI21X1_196
*1492 NAND2X1_149
*1493 NOR2X1_157
*1494 NOR2X1_158
*1495 MUX2X1_14
*1496 XNOR2X1_4
*1497 XNOR2X1_3
*1498 NAND2X1_145
*1499 DFFPOSX1_28
*1500 NAND2X1_144
*1501 NOR2X1_154
*1502 NAND3X1_132
*1503 FILL_14_2_0
*1504 FILL_14_2_1
*1505 FILL_14_2_2
*1506 BUFX4_20
*1507 DFFPOSX1_128
*1508 NAND2X1_243
*1509 OAI21X1_460
*1510 BUFX4_66
*1511 NAND2X1_249
*1512 OAI21X1_398
*1513 OAI21X1_395
*1514 INVX1_166
*1515 AOI21X1_121
*1516 NOR2X1_238
*1517 INVX1_192
*1518 OAI21X1_444
*1519 OAI21X1_443
*1520 AOI22X1_59
*1521 OAI21X1_446
*1522 NAND3X1_169
*1523 NAND3X1_170
*1524 OR2X2_39
*1525 OAI21X1_450
*1526 NAND2X1_230
*1527 NAND3X1_173
*1528 OAI21X1_454
*1529 INVX1_198
*1530 INVX1_197
*1531 FILL_15_1
*1532 DFFPOSX1_112
*1533 OAI22X1_47
*1534 NOR2X1_217
*1535 NAND3X1_25
*1536 NAND3X1_162
*1537 INVX1_158
*1538 NAND2X1_35
*1539 NAND3X1_23
*1540 OAI21X1_376
*1541 INVX1_27
*1542 AOI22X1_8
*1543 NAND3X1_36
*1544 NAND2X1_27
*1545 AND2X2_6
*1546 NAND3X1_24
*1547 AOI21X1_18
*1548 AOI22X1_7
*1549 NAND3X1_27
*1550 NAND3X1_32
*1551 DFFPOSX1_95
*1552 NAND2X1_20
*1553 NAND2X1_25
*1554 FILL_15_0_0
*1555 FILL_15_0_1
*1556 FILL_15_0_2
*1557 OAI21X1_21
*1558 NAND2X1_24
*1559 OAI21X1_341
*1560 OAI21X1_342
*1561 INVX1_155
*1562 OAI21X1_320
*1563 AOI21X1_11
*1564 OAI21X1_337
*1565 NOR2X1_200
*1566 AOI21X1_104
*1567 NOR2X1_199
*1568 NAND2X1_194
*1569 OAI21X1_338
*1570 NAND2X1_201
*1571 OAI21X1_361
*1572 OAI22X1_30
*1573 OAI22X1_29
*1574 NAND3X1_159
*1575 OAI21X1_345
*1576 AOI21X1_107
*1577 OAI21X1_198
*1578 DFFPOSX1_33
*1579 AND2X2_38
*1580 FILL_15_1_0
*1581 FILL_15_1_1
*1582 FILL_15_1_2
*1583 AOI21X1_64
*1584 OAI21X1_159
*1585 OAI21X1_158
*1586 OR2X2_2
*1587 DFFPOSX1_73
*1588 INVX2_11
*1589 INVX1_122
*1590 AOI21X1_73
*1591 NOR2X1_155
*1592 NAND2X1_147
*1593 AOI22X1_32
*1594 XNOR2X1_2
*1595 OAI21X1_193
*1596 BUFX2_4
*1597 OAI21X1_150
*1598 OR2X2_16
*1599 INVX1_121
*1600 OAI21X1_286
*1601 INVX1_86
*1602 NAND2X1_184
*1603 INVX1_165
*1604 INVX1_76
*1605 DFFPOSX1_2
*1606 FILL_15_2_0
*1607 FILL_15_2_1
*1608 FILL_15_2_2
*1609 OAI21X1_236
*1610 NAND2X1_168
*1611 DFFPOSX1_130
*1612 DFFPOSX1_134
*1613 OAI21X1_469
*1614 INVX1_164
*1615 NOR2X1_230
*1616 OAI21X1_396
*1617 AOI22X1_51
*1618 INVX1_194
*1619 INVX1_193
*1620 AOI21X1_128
*1621 INVX1_169
*1622 AOI21X1_130
*1623 INVX1_167
*1624 OAI21X1_437
*1625 OAI21X1_399
*1626 NAND2X1_231
*1627 NAND2X1_237
*1628 NAND2X1_241
*1629 INVX1_199
*1630 INVX1_196
*1631 OAI21X1_449
*1632 OAI21X1_447
*1633 FILL_16_1
*1634 DFFPOSX1_113
*1635 NAND2X1_210
*1636 DFFPOSX1_118
*1637 NAND3X1_10
*1638 INVX2_13
*1639 INVX2_14
*1640 NAND3X1_21
*1641 NAND2X1_17
*1642 NAND2X1_26
*1643 NAND3X1_22
*1644 AND2X2_5
*1645 AOI21X1_14
*1646 AOI21X1_25
*1647 BUFX4_35
*1648 NAND3X1_11
*1649 AOI21X1_5
*1650 OAI21X1_10
*1651 NOR2X1_18
*1652 AOI21X1_28
*1653 NAND3X1_35
*1654 NAND2X1_32
*1655 NAND2X1_29
*1656 OAI21X1_30
*1657 FILL_16_0_0
*1658 FILL_16_0_1
*1659 FILL_16_0_2
*1660 NOR2X1_33
*1661 AOI22X1_47
*1662 BUFX4_34
*1663 AOI22X1_44
*1664 OAI21X1_317
*1665 BUFX4_32
*1666 OAI21X1_349
*1667 OAI21X1_350
*1668 AOI21X1_108
*1669 OAI21X1_353
*1670 OAI21X1_357
*1671 AOI21X1_109
*1672 AOI21X1_110
*1673 NAND2X1_197
*1674 OAI21X1_347
*1675 NOR2X1_214
*1676 OAI21X1_358
*1677 OAI21X1_354
*1678 NOR2X1_137
*1679 OAI21X1_141
*1680 NOR2X1_138
*1681 OAI21X1_153
*1682 INVX2_41
*1683 OAI22X1_15
*1684 INVX1_123
*1685 FILL_16_1_0
*1686 FILL_16_1_1
*1687 FILL_16_1_2
*1688 OAI21X1_31
*1689 INVX2_35
*1690 OAI21X1_176
*1691 OAI21X1_157
*1692 OAI21X1_171
*1693 BUFX2_34
*1694 INVX2_21
*1695 AOI22X1_31
*1696 OAI21X1_192
*1697 NAND2X1_146
*1698 NOR2X1_156
*1699 AOI22X1_30
*1700 DFFPOSX1_10
*1701 NAND2X1_128
*1702 NAND2X1_134
*1703 NAND2X1_133
*1704 INVX1_88
*1705 NAND2X1_171
*1706 OAI21X1_239
*1707 DFFPOSX1_5
*1708 DFFPOSX1_9
*1709 FILL_16_2_0
*1710 FILL_16_2_1
*1711 FILL_16_2_2
*1712 OAI21X1_287
*1713 NAND2X1_185
*1714 DFFPOSX1_29
*1715 NAND2X1_245
*1716 OAI21X1_464
*1717 NAND2X1_223
*1718 NAND2X1_214
*1719 OAI21X1_400
*1720 OAI22X1_55
*1721 OAI21X1_436
*1722 OAI21X1_435
*1723 OAI21X1_403
*1724 INVX1_171
*1725 INVX1_200
*1726 OAI21X1_452
*1727 NAND2X1_240
*1728 NAND2X1_239
*1729 INVX1_185
*1730 OAI21X1_457
*1731 AOI21X1_126
*1732 OAI21X1_453