*SPEF "IEEE 1481-2009" 
*DESIGN 
*DATE 
*VENDOR 
*PROGRAM 
*VERSION "0.0"
*DESIGN_FLOW
*DIVIDER /
*DELIMITER :
*BUS_DELIMITER <>
*T_UNIT 1 PS
*C_UNIT 1 FF
*R_UNIT 1 KOHM
*L_UNIT 1 UH

*NAME_MAP

*1 NAND2X1_10
*2 OAI21X1_8
*3 DFFSR_1
*4 FILL_0_0_0
*5 FILL_0_0_1
*6 FILL_0_0_2
*7 NAND2X1_1
*8 OAI21X1_1
*9 BUFX4_1
*10 DFFSR_12
*11 INVX1_7
*12 NOR2X1_3
*13 FILL_0_1_0
*14 FILL_0_1_1
*15 FILL_0_1_2
*16 DFFSR_9
*17 BUFX2_3
*18 FILL_1_1
*19 FILL_1_2
*20 MUX2X1_5
*21 OAI21X1_9
*22 MUX2X1_6
*23 FILL_1_0_0
*24 FILL_1_0_1
*25 FILL_1_0_2
*26 DFFSR_2
*27 DFFSR_4
*28 FILL_1_1_0
*29 FILL_1_1_1
*30 FILL_1_1_2
*31 DFFSR_10
*32 NOR2X1_5
*33 INVX1_8
*34 OAI21X1_7
*35 BUFX2_5
*36 NAND2X1_11
*37 DFFSR_8
*38 FILL_2_0_0
*39 FILL_2_0_1
*40 FILL_2_0_2
*41 MUX2X1_7
*42 MUX2X1_8
*43 DFFSR_3
*44 INVX2_1
*45 NAND2X1_6
*46 INVX1_1
*47 FILL_2_1_0
*48 FILL_2_1_1
*49 FILL_2_1_2
*50 OAI21X1_6
*51 DFFSR_13
*52 FILL_3_1
*53 FILL_3_2
*54 BUFX2_1
*55 MUX2X1_3
*56 MUX2X1_4
*57 NOR2X1_1
*58 MUX2X1_2
*59 OAI21X1_10
*60 FILL_3_0_0
*61 FILL_3_0_1
*62 FILL_3_0_2
*63 MUX2X1_1
*64 OAI21X1_2
*65 BUFX4_2
*66 DFFSR_11
*67 NAND2X1_5
*68 FILL_3_1_0
*69 FILL_3_1_1
*70 FILL_3_1_2
*71 INVX1_6
*72 INVX1_3
*73 NAND3X1_2
*74 OAI22X1_1
*75 INVX1_5
*76 INVX1_2
*77 NOR2X1_4
*78 BUFX2_2
*79 BUFX2_4
*80 FILL_4_1
*81 NAND2X1_4
*82 OAI21X1_4
*83 DFFSR_7
*84 FILL_4_0_0
*85 FILL_4_0_1
*86 FILL_4_0_2
*87 DFFSR_5
*88 DFFSR_16
*89 FILL_4_1_0
*90 FILL_4_1_1
*91 FILL_4_1_2
*92 NAND3X1_1
*93 NAND2X1_9
*94 NAND2X1_8
*95 INVX1_4
*96 OAI21X1_5
*97 NOR2X1_2
*98 FILL_5_1
*99 FILL_5_2
*100 DFFSR_6
*101 OAI21X1_3
*102 FILL_5_0_0
*103 FILL_5_0_1
*104 FILL_5_0_2
*105 NAND2X1_3
*106 NAND2X1_12
*107 NAND2X1_2
*108 INVX4_1
*109 INVX4_2
*110 DFFSR_14
*111 NAND2X1_7
*112 FILL_5_1_0
*113 FILL_5_1_1
*114 FILL_5_1_2
*115 NAND3X1_3
*116 DFFSR_15
*117 FILL_6_1
*118 FILL_6_2
*119 load
*120 data_in<3>
*121 _41_
*122 _40_
*123 _27_
*124 shift.data<3>
*125 shift.data<4>
*126 shift_en
*127 _42_
*128 data_in<4>
*129 _43_
*130 _28_
*131 shift.data<5>
*132 _44_
*133 data_in<5>
*134 _45_
*135 _29_
*136 shift.data<6>
*137 _46_
*138 data_in<6>
*139 _47_
*140 _30_
*141 _0_
*142 _48_
*143 _33_
*144 clk
*145 _36_
*146 rst
*147 _38_
*148 _49_
*149 shift.data<0>
*150 vdd
*151 _25_
*152 shift.data<1>
*153 _26_
*154 shift.data<2>
*155 MOSI
*156 _1_
*157 SCLK
*158 _2_
*159 SS
*160 _3_
*161 done
*162 ctrl.cstate<1>
*163 _5_
*164 ctrl.count<0>
*165 ctrl.count<1>
*166 ctrl.count<2>
*167 _6_
*168 ctrl.clk_en
*169 _7_
*170 _22_
*171 _8_
*172 ctrl.cstate<4>
*173 _9_
*174 send
*175 _23_<4>
*176 _4_<0>
*177 _11_
*178 _13_
*179 _15_
*180 _4_<1>
*181 _16_
*182 _17_
*183 _18_
*184 _4_<2>
*185 ctrl.cstate<3>
*186 _19_
*187 _14_
*188 ctrl.cstate<0>
*189 _20_
*190 _10_
*191 _21_
*192 _12_
*193 _24_
*194 MISO
*195 _31_
*196 data_in<0>
*197 _32_
*198 _34_
*199 data_in<1>
*200 _35_
*201 _37_
*202 data_in<2>
*203 _39_

*PORTS

*END

