*SPEF "IEEE 1481-1998"
*DESIGN "spi_master"
*DATE "Sat Dec 07 19:19:59 2019"
*VENDOR "ISPD 2013 Contest"
*PROGRAM "Benchmark Parasitic Generator"
*VERSION "0.0"
*DESIGN_FLOW "PIN_CAP NONE"
*DIVIDER /
*DELIMITER :
*BUS_DELIMITER <>
*T_UNIT 1.00000 NS
*C_UNIT 1.00000 FF
*R_UNIT 1.00000 OHM
*L_UNIT 1.00000 HENRY

*NAME_MAP

*1 NAND2X1_10
*2 OAI21X1_8
*3 DFFSR_1
*4 FILL_0_0_0
*5 FILL_0_0_1
*6 FILL_0_0_2
*7 NAND2X1_1
*8 OAI21X1_1
*9 BUFX4_1
*10 DFFSR_12
*11 INVX1_7
*12 NOR2X1_3
*13 FILL_0_1_0
*14 FILL_0_1_1
*15 FILL_0_1_2
*16 DFFSR_9
*17 BUFX2_3
*18 FILL_1_1
*19 FILL_1_2
*20 MUX2X1_5
*21 OAI21X1_9
*22 MUX2X1_6
*23 FILL_1_0_0
*24 FILL_1_0_1
*25 FILL_1_0_2
*26 DFFSR_2
*27 DFFSR_4
*28 FILL_1_1_0
*29 FILL_1_1_1
*30 FILL_1_1_2
*31 DFFSR_10
*32 NOR2X1_5
*33 INVX1_8
*34 OAI21X1_7
*35 BUFX2_5
*36 NAND2X1_11
*37 DFFSR_8
*38 FILL_2_0_0
*39 FILL_2_0_1
*40 FILL_2_0_2
*41 MUX2X1_7
*42 MUX2X1_8
*43 DFFSR_3
*44 INVX2_1
*45 NAND2X1_6
*46 INVX1_1
*47 FILL_2_1_0
*48 FILL_2_1_1
*49 FILL_2_1_2
*50 OAI21X1_6
*51 DFFSR_13
*52 FILL_3_1
*53 FILL_3_2
*54 BUFX2_1
*55 MUX2X1_3
*56 MUX2X1_4
*57 NOR2X1_1
*58 MUX2X1_2
*59 OAI21X1_10
*60 FILL_3_0_0
*61 FILL_3_0_1
*62 FILL_3_0_2
*63 MUX2X1_1
*64 OAI21X1_2
*65 BUFX4_2
*66 DFFSR_11
*67 NAND2X1_5
*68 FILL_3_1_0
*69 FILL_3_1_1
*70 FILL_3_1_2
*71 INVX1_6
*72 INVX1_3
*73 NAND3X1_2
*74 OAI22X1_1
*75 INVX1_5
*76 INVX1_2
*77 NOR2X1_4
*78 BUFX2_2
*79 BUFX2_4
*80 FILL_4_1
*81 NAND2X1_4
*82 OAI21X1_4
*83 DFFSR_7
*84 FILL_4_0_0
*85 FILL_4_0_1
*86 FILL_4_0_2
*87 DFFSR_5
*88 DFFSR_16
*89 FILL_4_1_0
*90 FILL_4_1_1
*91 FILL_4_1_2
*92 NAND3X1_1
*93 NAND2X1_9
*94 NAND2X1_8
*95 INVX1_4
*96 OAI21X1_5
*97 NOR2X1_2
*98 FILL_5_1
*99 FILL_5_2
*100 DFFSR_6
*101 OAI21X1_3
*102 FILL_5_0_0
*103 FILL_5_0_1
*104 FILL_5_0_2
*105 NAND2X1_3
*106 NAND2X1_12
*107 NAND2X1_2
*108 INVX4_1
*109 INVX4_2
*110 DFFSR_14
*111 NAND2X1_7
*112 FILL_5_1_0
*113 FILL_5_1_1
*114 FILL_5_1_2
*115 NAND3X1_3
*116 DFFSR_15
*117 FILL_6_1
*118 FILL_6_2
*119 load
*120 data_in<3>
*121 _41_
*122 _40_
*123 _27_
*124 shift.data<3>
*125 shift.data<4>
*126 shift_en
*127 _42_
*128 data_in<4>
*129 _43_
*130 _28_
*131 shift.data<5>
*132 _44_
*133 data_in<5>
*134 _45_
*135 _29_
*136 shift.data<6>
*137 _46_
*138 data_in<6>
*139 _47_
*140 _30_
*141 _0_
*142 _48_
*143 _33_
*144 clk
*145 _36_
*146 rst
*147 _38_
*148 _49_
*149 shift.data<0>
*150 vdd
*151 _25_
*152 shift.data<1>
*153 _26_
*154 shift.data<2>
*155 MOSI
*156 _1_
*157 SCLK
*158 _2_
*159 SS
*160 _3_
*161 done
*162 ctrl.cstate<1>
*163 _5_
*164 ctrl.count<0>
*165 ctrl.count<1>
*166 ctrl.count<2>
*167 _6_
*168 ctrl.clk_en
*169 _7_
*170 _22_
*171 _8_
*172 ctrl.cstate<4>
*173 _9_
*174 send
*175 _23_<4>
*176 _4_<0>
*177 _11_
*178 _13_
*179 _15_
*180 _4_<1>
*181 _16_
*182 _17_
*183 _18_
*184 _4_<2>
*185 ctrl.cstate<3>
*186 _19_
*187 _14_
*188 ctrl.cstate<0>
*189 _20_
*190 _10_
*191 _21_
*192 _12_
*193 _24_
*194 MISO
*195 _31_
*196 data_in<0>
*197 _32_
*198 _34_
*199 data_in<1>
*200 _35_
*201 _37_
*202 data_in<2>
*203 _39_
*D_NET *119 0.5975332999999998

*CONN
*I *59:A I
*I *106:A I
*I *21:A I
*I *36:A I
*I *2:A I
*I *1:B I
*I *9:Y I
*I *57:A I
*I *82:A I
*I *81:A I
*I *101:A I
*I *105:A I
*I *64:A I
*I *107:A I
*I *8:A I
*I *7:A I

*CAP
1 *59:A 0.0265312
2 *106:A 0.0177118
3 *21:A 0.0265312
4 *36:A 0.0177118
5 *2:A 0.0265312
6 *1:B 0.0180112
7 *9:Y 0.0
8 *57:A 0.0222369
9 *82:A 0.0265312
10 *81:A 0.0177118
11 *101:A 0.0265312
12 *105:A 0.0177118
13 *64:A 0.0265312
14 *107:A 0.0177118
15 *8:A 0.0265312
16 *7:A 0.0177118
17 *119:17 0.004032
18 *119:18 0.00576
19 *119:19 0.051000000000000004
20 *119:20 0.010752
21 *119:21 0.0020399999999999997
22 *119:22 0.004704
23 *119:23 0.0408
24 *119:24 0.00288
25 *119:25 0.0033599999999999997
26 *119:26 0.004704
27 *119:27 0.014279999999999998
28 *119:28 0.010752
29 *119:29 0.002688
30 *119:30 0.00288
31 *119:31 0.0408
32 *119:32 0.04488
33 *119:33 0.0020399999999999997
34 *119:34 0.002688
35 *119:35 0.012240000000000001
36 *119:36 0.002016

*RES
1 *119:1 *119:2 0.0
2 *119:2 *119:3 0.0
3 *119:3 *119:4 112.00000000000001
4 *119:4 *119:5 0.0
5 *119:5 *119:6 0.0
6 *119:6 *119:7 37.333333333333336
7 *119:7 *119:8 0.0
8 *119:8 *119:9 583.3333333333335
9 *119:9 *119:10 0.0
10 *119:10 *119:11 0.0
11 *119:11 *119:12 0.0
12 *119:12 *119:13 298.6666666666667
13 *119:13 *119:14 0.0
14 *119:14 *119:15 0.0
15 *119:15 *119:16 23.333333333333336
16 *119:16 *119:17 0.0
17 *119:17 *119:18 130.66666666666669
18 *119:18 *119:19 0.0
19 *119:19 *119:20 466.6666666666667
20 *119:20 *119:21 0.0
21 *119:21 *119:22 18.666666666666668
22 *119:22 *119:23 0.0
23 *119:23 *119:24 0.0
24 *119:24 *119:25 93.33333333333334
25 *119:25 *119:26 0.0
26 *119:26 *119:27 0.0
27 *119:27 *119:28 0.0
28 *119:28 *119:29 130.66666666666669
29 *119:29 *119:30 0.0
30 *119:30 *119:31 163.33333333333337
31 *119:31 *119:32 0.0
32 *119:32 *119:33 298.6666666666667
33 *119:33 *119:34 0.0
34 *119:34 *119:35 0.0
35 *119:35 *119:36 74.66666666666667
36 *119:36 *119:37 0.0
37 *119:37 *119:38 18.666666666666668
38 *119:38 *119:39 0.0
39 *119:39 *119:40 466.6666666666667
40 *119:40 *119:41 0.0
41 *119:41 *119:42 0.0
42 *119:42 *119:43 513.3333333333335
43 *119:43 *119:44 0.0
44 *119:44 *119:45 0.0
45 *119:45 *119:46 23.333333333333336
46 *119:46 *119:47 0.0
47 *119:47 *119:48 74.66666666666667
48 *119:48 *119:49 0.0
49 *119:49 *119:50 0.0
50 *119:50 *119:51 140.00000000000003
51 *119:51 *119:52 0.0
52 *119:52 *119:53 56.00000000000001

*END

*D_NET *120 0.9609046

*CONN
*P *120 I
*I *7:B I

*CAP
1 *7:B 0.0180112
2 *120:2 0.0040698
3 *120:3 0.002016
4 *120:4 0.0061200000000000004
5 *120:5 0.0009

*RES
1 *120:1 *120:2 46.550000000000004
2 *120:2 *120:3 0.0
3 *120:3 *120:4 56.00000000000001
4 *120:4 *120:5 0.0
5 *120:5 *120:6 70.00000000000001
6 *120:6 *120:7 0.0
7 *120:7 *120:8 5.833333333333334

*END

*D_NET *121 1.0062859

*CONN
*I *8:C I
*I *7:Y I

*CAP
1 *8:C 0.0180101
2 *7:Y 0.0
3 *121:3 0.0036
4 *121:4 0.00576

*RES
1 *121:1 *121:2 23.333333333333336
2 *121:2 *121:3 37.333333333333336

*END

*D_NET *122 1.0840062

*CONN
*I *42:Y I
*I *8:B I

*CAP
1 *42:Y 0.0
2 *8:B 0.0270702
3 *122:3 0.032639999999999995

*RES
1 *122:1 *122:2 0.0
2 *122:2 *122:3 373.33333333333337
3 *122:3 *122:4 0.0

*END

*D_NET *123 1.1510116000000001

*CONN
*I *27:D I
*I *8:Y I

*CAP
1 *27:D 0.0135592
2 *8:Y 0.0
3 *123:3 0.012096
4 *123:4 0.014279999999999998

*RES
1 *123:1 *123:2 0.0
2 *123:2 *123:3 0.0
3 *123:3 *123:4 336.00000000000006
4 *123:4 *123:5 0.0
5 *123:5 *123:6 163.33333333333337
6 *123:6 *123:7 0.0

*END

*D_NET *124 1.2588816000000003

*CONN
*I *42:B I
*I *27:Q I
*I *63:A I

*CAP
1 *42:B 0.0265339
2 *27:Q 0.0
3 *63:A 0.0265929
4 *124:4 0.001632
5 *124:5 0.018359999999999998
6 *124:6 0.00288
7 *124:7 0.0020399999999999997
8 *124:8 0.004032
9 *124:9 0.012240000000000001

*RES
1 *124:1 *124:2 0.0
2 *124:2 *124:3 18.666666666666668
3 *124:3 *124:4 210.00000000000003
4 *124:4 *124:5 0.0
5 *124:5 *124:6 18.666666666666668
6 *124:6 *124:7 0.0
7 *124:7 *124:8 23.333333333333336
8 *124:8 *124:9 0.0
9 *124:9 *124:10 112.00000000000001
10 *124:10 *124:11 0.0
11 *124:11 *124:12 140.00000000000003

*END

*D_NET *125 1.3930952000000003

*CONN
*I *87:Q I
*I *58:A I
*I *63:B I

*CAP
1 *87:Q 0.0
2 *58:A 0.0265929
3 *63:B 0.0265339
4 *125:4 0.00288
5 *125:5 0.018359999999999998
6 *125:6 0.006719999999999999

*RES
1 *125:1 *125:2 18.666666666666668
2 *125:2 *125:3 0.0
3 *125:3 *125:4 210.00000000000003
4 *125:4 *125:5 0.0
5 *125:5 *125:6 0.0
6 *125:6 *125:7 0.0
7 *125:7 *125:8 186.66666666666669
8 *125:8 *125:9 0.0

*END

*D_NET *126 1.7936396000000001

*CONN
*I *42:S I
*I *41:S I
*I *22:S I
*I *20:S I
*I *65:Y I
*I *56:S I
*I *55:S I
*I *58:S I
*I *63:S I

*CAP
1 *42:S 0.0295792
2 *41:S 0.0295792
3 *22:S 0.0295792
4 *20:S 0.0295792
5 *65:Y 0.0
6 *56:S 0.0295792
7 *55:S 0.0295792
8 *58:S 0.0295792
9 *63:S 0.0295792
10 *126:10 0.0020399999999999997
11 *126:11 0.001344
12 *126:12 0.016319999999999998
13 *126:13 0.00288
14 *126:14 0.0102
15 *126:15 0.006048
16 *126:16 0.004079999999999999
17 *126:17 0.008735999999999999
18 *126:18 0.004079999999999999
19 *126:19 0.006048
20 *126:20 0.00288
21 *126:21 0.036719999999999996
22 *126:22 0.002688
23 *126:23 0.006719999999999999

*RES
1 *126:1 *126:2 0.0
2 *126:2 *126:3 23.333333333333336
3 *126:3 *126:4 0.0
4 *126:4 *126:5 37.333333333333336
5 *126:5 *126:6 0.0
6 *126:6 *126:7 186.66666666666669
7 *126:7 *126:8 0.0
8 *126:8 *126:9 18.666666666666668
9 *126:9 *126:10 0.0
10 *126:10 *126:11 116.66666666666667
11 *126:11 *126:12 0.0
12 *126:12 *126:13 168.00000000000003
13 *126:13 *126:14 0.0
14 *126:14 *126:15 46.66666666666667
15 *126:15 *126:16 0.0
16 *126:16 *126:17 242.6666666666667
17 *126:17 *126:18 0.0
18 *126:18 *126:19 0.0
19 *126:19 *126:20 46.66666666666667
20 *126:20 *126:21 0.0
21 *126:21 *126:22 168.00000000000003
22 *126:22 *126:23 18.666666666666668
23 *126:23 *126:24 0.0
24 *126:24 *126:25 420.00000000000006
25 *126:25 *126:26 0.0
26 *126:26 *126:27 74.66666666666667
27 *126:27 *126:28 0.0
28 *126:28 *126:29 0.0
29 *126:29 *126:30 186.66666666666669
30 *126:30 *126:31 0.0

*END

*D_NET *127 2.0620713999999998

*CONN
*I *64:B I
*I *63:Y I

*CAP
1 *64:B 0.0270702
2 *63:Y 0.0
3 *127:3 0.002688
4 *127:4 0.0020399999999999997

*RES
1 *127:1 *127:2 0.0
2 *127:2 *127:3 0.0
3 *127:3 *127:4 74.66666666666667
4 *127:4 *127:5 0.0
5 *127:5 *127:6 23.333333333333336
6 *127:6 *127:7 0.0

*END

*D_NET *128 2.1202858

*CONN
*P *128 I
*I *107:B I

*CAP
1 *107:B 0.0180112
2 *128:2 0.0102
3 *128:3 0.002016
4 *128:4 0.0009

*RES
1 *128:1 *128:2 116.66666666666667
2 *128:2 *128:3 0.0
3 *128:3 *128:4 56.00000000000001
4 *128:4 *128:5 0.0
5 *128:5 *128:6 0.0
6 *128:6 *128:7 5.833333333333334

*END

*D_NET *129 2.1889471

*CONN
*I *64:C I
*I *107:Y I

*CAP
1 *64:C 0.0180101
2 *107:Y 0.0
3 *129:3 0.032639999999999995

*RES
1 *129:1 *129:2 0.0
2 *129:2 *129:3 373.33333333333337
3 *129:3 *129:4 0.0

*END

*D_NET *130 2.2414084

*CONN
*I *87:D I
*I *64:Y I

*CAP
1 *87:D 0.0135592
2 *64:Y 0.0
3 *130:3 0.012240000000000001
4 *130:4 0.004032
5 *130:5 0.004079999999999999
6 *130:6 0.00054

*RES
1 *130:1 *130:2 0.0
2 *130:2 *130:3 140.00000000000003
3 *130:3 *130:4 0.0
4 *130:4 *130:5 112.00000000000001
5 *130:5 *130:6 0.0
6 *130:6 *130:7 46.66666666666667
7 *130:7 *130:8 0.0
8 *130:8 *130:9 3.5000000000000004

*END

*D_NET *131 2.3548703999999994

*CONN
*I *100:Q I
*I *55:A I
*I *58:B I

*CAP
1 *100:Q 0.0
2 *55:A 0.0265929
3 *58:B 0.0265339
4 *131:4 0.010079999999999999
5 *131:5 0.034679999999999996
6 *131:6 0.002016

*RES
1 *131:1 *131:2 0.0
2 *131:2 *131:3 0.0
3 *131:3 *131:4 280.00000000000006
4 *131:4 *131:5 0.0
5 *131:5 *131:6 0.0
6 *131:6 *131:7 0.0
7 *131:7 *131:8 396.66666666666674
8 *131:8 *131:9 0.0
9 *131:9 *131:10 56.00000000000001

*END

*D_NET *132 2.460543399999999

*CONN
*I *101:B I
*I *58:Y I

*CAP
1 *101:B 0.0270702
2 *58:Y 0.0
3 *132:3 0.000672
4 *132:4 0.00864
5 *132:5 0.001344
6 *132:6 0.014279999999999998
7 *132:7 0.00054

*RES
1 *132:1 *132:2 0.0
2 *132:2 *132:3 0.0
3 *132:3 *132:4 18.666666666666668
4 *132:4 *132:5 0.0
5 *132:5 *132:6 60.0
6 *132:6 *132:7 0.0
7 *132:7 *132:8 37.333333333333336
8 *132:8 *132:9 0.0
9 *132:9 *132:10 163.33333333333337
10 *132:10 *132:11 0.0
11 *132:11 *132:12 3.5000000000000004

*END

*D_NET *133 2.519717799999999

*CONN
*P *133 I
*I *105:B I

*CAP
1 *105:B 0.0180112
2 *133:2 0.001632
3 *133:3 0.008159999999999999
4 *133:4 0.001344
5 *133:5 0.0020399999999999997
6 *133:6 0.0009

*RES
1 *133:1 *133:2 18.666666666666668
2 *133:2 *133:3 93.33333333333334
3 *133:3 *133:4 0.0
4 *133:4 *133:5 37.333333333333336
5 *133:5 *133:6 0.0
6 *133:6 *133:7 23.333333333333336
7 *133:7 *133:8 0.0
8 *133:8 *133:9 5.833333333333334

*END

*D_NET *134 2.5701390999999996

*CONN
*I *101:C I
*I *105:Y I

*CAP
1 *101:C 0.0180101
2 *105:Y 0.0
3 *134:3 0.0144

*RES
1 *134:1 *134:2 93.33333333333334

*END

*D_NET *135 2.6141284

*CONN
*I *100:D I
*I *101:Y I

*CAP
1 *100:D 0.0135592
2 *101:Y 0.0
3 *135:3 0.004079999999999999
4 *135:4 0.006719999999999999
5 *135:5 0.0016200000000000001

*RES
1 *135:1 *135:2 0.0
2 *135:2 *135:3 46.66666666666667
3 *135:3 *135:4 0.0
4 *135:4 *135:5 186.66666666666669
5 *135:5 *135:6 0.0
6 *135:6 *135:7 0.0
7 *135:7 *135:8 10.500000000000002

*END

*D_NET *136 2.7081264

*CONN
*I *83:Q I
*I *56:A I
*I *55:B I

*CAP
1 *83:Q 0.0
2 *56:A 0.0265929
3 *55:B 0.0265339
4 *136:4 0.00288
5 *136:5 0.018359999999999998
6 *136:6 0.0020399999999999997
7 *136:7 0.004032

*RES
1 *136:1 *136:2 18.666666666666668
2 *136:2 *136:3 0.0
3 *136:3 *136:4 210.00000000000003
4 *136:4 *136:5 0.0
5 *136:5 *136:6 0.0
6 *136:6 *136:7 23.333333333333336
7 *136:7 *136:8 0.0
8 *136:8 *136:9 112.00000000000001
9 *136:9 *136:10 0.0

*END

*D_NET *137 2.8026033999999993

*CONN
*I *82:B I
*I *55:Y I

*CAP
1 *82:B 0.0270702
2 *55:Y 0.0
3 *137:3 0.014279999999999998

*RES
1 *137:1 *137:2 0.0
2 *137:2 *137:3 163.33333333333337
3 *137:3 *137:4 0.0

*END

*D_NET *138 2.849031599999999

*CONN
*P *138 I
*I *81:B I

*CAP
1 *81:B 0.0180112
2 *138:2 0.0013398000000000001

*RES
1 *138:1 *138:2 37.21666666666667
2 *138:2 *138:3 0.0
3 *138:3 *138:4 0.0

*END

*D_NET *139 2.8908128999999994

*CONN
*I *82:C I
*I *81:Y I

*CAP
1 *82:C 0.0180101
2 *81:Y 0.0
3 *139:3 0.00576

*RES
1 *139:1 *139:2 37.333333333333336

*END

*D_NET *140 2.9372141999999997

*CONN
*I *83:D I
*I *82:Y I

*CAP
1 *83:D 0.0135592
2 *82:Y 0.0
3 *140:3 0.0020399999999999997
4 *140:4 0.010752
5 *140:5 0.0020399999999999997

*RES
1 *140:1 *140:2 0.0
2 *140:2 *140:3 23.333333333333336
3 *140:3 *140:4 0.0
4 *140:4 *140:5 298.6666666666667
5 *140:5 *140:6 0.0
6 *140:6 *140:7 23.333333333333336
7 *140:7 *140:8 0.0

*END

*D_NET *141 3.0103779999999998

*CONN
*I *54:A I
*I *37:Q I
*I *56:B I

*CAP
1 *54:A 0.0134147
2 *37:Q 0.0
3 *56:B 0.0265339
4 *141:4 0.0020399999999999997
5 *141:5 0.005376
6 *141:6 0.0020399999999999997
7 *141:7 0.0102

*RES
1 *141:1 *141:2 0.0
2 *141:2 *141:3 23.333333333333336
3 *141:3 *141:4 0.0
4 *141:4 *141:5 149.33333333333334
5 *141:5 *141:6 0.0
6 *141:6 *141:7 23.333333333333336
7 *141:7 *141:8 0.0
8 *141:8 *141:9 0.0
9 *141:9 *141:10 116.66666666666667
10 *141:10 *141:11 0.0

*END

*D_NET *142 3.0824399999999996

*CONN
*I *57:B I
*I *56:Y I

*CAP
1 *57:B 0.0227534
2 *56:Y 0.0
3 *142:3 0.0036
4 *142:4 0.00576

*RES
1 *142:1 *142:2 23.333333333333336
2 *142:2 *142:3 37.333333333333336

*END

*D_NET *143 3.1289526

*CONN
*I *37:D I
*I *57:Y I

*CAP
1 *37:D 0.0135592
2 *57:Y 0.0
3 *143:3 0.0102

*RES
1 *143:1 *143:2 0.0
2 *143:2 *143:3 116.66666666666667
3 *143:3 *143:4 0.0

*END

*D_NET *144 3.3718501

*CONN
*P *144 I
*I *51:CLK I
*I *10:CLK I
*I *66:CLK I
*I *31:CLK I
*I *16:CLK I
*I *71:A I
*I *44:A I

*CAP
1 *51:CLK 0.0134469
2 *10:CLK 0.0134469
3 *66:CLK 0.0134469
4 *31:CLK 0.0134469
5 *16:CLK 0.0134469
6 *71:A 0.0134094
7 *44:A 0.0274396
8 *144:8 0.004704
9 *144:9 0.012240000000000001
10 *144:10 0.007391999999999999
11 *144:11 0.008064
12 *144:12 0.0102
13 *144:13 0.030599999999999995
14 *144:14 0.004032
15 *144:15 0.0102
16 *144:16 0.015455999999999998
17 *144:17 0.0183498

*RES
1 *144:1 *144:2 0.0
2 *144:2 *144:3 0.0
3 *144:3 *144:4 130.66666666666669
4 *144:4 *144:5 0.0
5 *144:5 *144:6 140.00000000000003
6 *144:6 *144:7 0.0
7 *144:7 *144:8 0.0
8 *144:8 *144:9 0.0
9 *144:9 *144:10 205.33333333333337
10 *144:10 *144:11 0.0
11 *144:11 *144:12 0.0
12 *144:12 *144:13 224.00000000000003
13 *144:13 *144:14 0.0
14 *144:14 *144:15 116.66666666666667
15 *144:15 *144:16 0.0
16 *144:16 *144:17 350.00000000000006
17 *144:17 *144:18 0.0
18 *144:18 *144:19 0.0
19 *144:19 *144:20 0.0
20 *144:20 *144:21 112.00000000000001
21 *144:21 *144:22 0.0
22 *144:22 *144:23 116.66666666666667
23 *144:23 *144:24 0.0
24 *144:24 *144:25 0.0
25 *144:25 *144:26 429.33333333333337
26 *144:26 *144:27 209.88333333333335

*END

*D_NET *145 3.809628799999999

*CONN
*I *37:CLK I
*I *83:CLK I
*I *100:CLK I
*I *87:CLK I
*I *27:CLK I
*I *43:CLK I
*I *26:CLK I
*I *3:CLK I
*I *44:Y I

*CAP
1 *37:CLK 0.0134469
2 *83:CLK 0.0134469
3 *100:CLK 0.0134469
4 *87:CLK 0.0134469
5 *27:CLK 0.0134469
6 *43:CLK 0.0134469
7 *26:CLK 0.0134469
8 *3:CLK 0.0134469
9 *44:Y 0.0
10 *145:10 0.007391999999999999
11 *145:11 0.012240000000000001
12 *145:12 0.001632
13 *145:13 0.018359999999999998
14 *145:14 0.014783999999999999
15 *145:15 0.0102
16 *145:16 0.008064
17 *145:17 0.02244
18 *145:18 0.002688
19 *145:19 0.008159999999999999
20 *145:20 0.0408
21 *145:21 0.005376
22 *145:22 0.014279999999999998
23 *145:23 0.002688
24 *145:24 0.02652
25 *145:25 0.024480000000000002
26 *145:26 0.002016

*RES
1 *145:1 *145:2 0.0
2 *145:2 *145:3 0.0
3 *145:3 *145:4 205.33333333333337
4 *145:4 *145:5 0.0
5 *145:5 *145:6 0.0
6 *145:6 *145:7 0.0
7 *145:7 *145:8 140.00000000000003
8 *145:8 *145:9 18.666666666666668
9 *145:9 *145:10 210.00000000000003
10 *145:10 *145:11 0.0
11 *145:11 *145:12 0.0
12 *145:12 *145:13 410.66666666666674
13 *145:13 *145:14 0.0
14 *145:14 *145:15 0.0
15 *145:15 *145:16 116.66666666666667
16 *145:16 *145:17 0.0
17 *145:17 *145:18 224.00000000000003
18 *145:18 *145:19 0.0
19 *145:19 *145:20 256.66666666666674
20 *145:20 *145:21 0.0
21 *145:21 *145:22 74.66666666666667
22 *145:22 *145:23 0.0
23 *145:23 *145:24 93.33333333333334
24 *145:24 *145:25 0.0
25 *145:25 *145:26 466.6666666666667
26 *145:26 *145:27 0.0
27 *145:27 *145:28 149.33333333333334
28 *145:28 *145:29 0.0
29 *145:29 *145:30 163.33333333333337
30 *145:30 *145:31 0.0
31 *145:31 *145:32 74.66666666666667
32 *145:32 *145:33 0.0
33 *145:33 *145:34 303.33333333333337
34 *145:34 *145:35 0.0
35 *145:35 *145:36 280.00000000000006
36 *145:36 *145:37 0.0
37 *145:37 *145:38 56.00000000000001

*END

*D_NET *146 4.047523599999999

*CONN
*P *146 I
*I *109:A I
*I *108:A I

*CAP
1 *109:A 0.0548793
2 *108:A 0.0548793
3 *146:3 0.00288
4 *146:4 0.008159999999999999
5 *146:5 0.001344
6 *146:6 0.008159999999999999

*RES
1 *146:1 *146:2 18.666666666666668
2 *146:2 *146:3 93.33333333333334
3 *146:3 *146:4 0.0
4 *146:4 *146:5 37.333333333333336
5 *146:5 *146:6 0.0
6 *146:6 *146:7 93.33333333333334
7 *146:7 *146:8 0.0

*END

*D_NET *147 4.609504599999999

*CONN
*I *37:R I
*I *83:R I
*I *100:R I
*I *87:R I
*I *27:R I
*I *43:R I
*I *26:R I
*I *3:R I
*I *108:Y I

*CAP
1 *37:R 0.0357813
2 *83:R 0.0357813
3 *100:R 0.0357813
4 *87:R 0.0357813
5 *27:R 0.0357813
6 *43:R 0.0357813
7 *26:R 0.0357813
8 *3:R 0.0357813
9 *108:Y 0.0
10 *147:10 0.016319999999999998
11 *147:11 0.00288
12 *147:12 0.008064
13 *147:13 0.004079999999999999
14 *147:14 0.004704
15 *147:15 0.014279999999999998
16 *147:16 0.032639999999999995
17 *147:17 0.0033599999999999997
18 *147:18 0.008159999999999999
19 *147:19 0.002688
20 *147:20 0.02244
21 *147:21 0.018359999999999998
22 *147:22 0.005376
23 *147:23 0.00018
24 *147:24 0.02244

*RES
1 *147:1 *147:2 0.0
2 *147:2 *147:3 186.66666666666669
3 *147:3 *147:4 0.0
4 *147:4 *147:5 18.666666666666668
5 *147:5 *147:6 0.0
6 *147:6 *147:7 0.0
7 *147:7 *147:8 224.00000000000003
8 *147:8 *147:9 0.0
9 *147:9 *147:10 0.0
10 *147:10 *147:11 46.66666666666667
11 *147:11 *147:12 0.0
12 *147:12 *147:13 130.66666666666669
13 *147:13 *147:14 0.0
14 *147:14 *147:15 163.33333333333337
15 *147:15 *147:16 0.0
16 *147:16 *147:17 373.33333333333337
17 *147:17 *147:18 0.0
18 *147:18 *147:19 93.33333333333334
19 *147:19 *147:20 0.0
20 *147:20 *147:21 93.33333333333334
21 *147:21 *147:22 0.0
22 *147:22 *147:23 0.0
23 *147:23 *147:24 74.66666666666667
24 *147:24 *147:25 0.0
25 *147:25 *147:26 256.66666666666674
26 *147:26 *147:27 0.0
27 *147:27 *147:28 210.00000000000003
28 *147:28 *147:29 0.0
29 *147:29 *147:30 0.0
30 *147:30 *147:31 149.33333333333334
31 *147:31 *147:32 0.0
32 *147:32 *147:33 0.0
33 *147:33 *147:34 1.1666666666666667
34 *147:34 *147:35 0.0
35 *147:35 *147:36 256.66666666666674
36 *147:36 *147:37 0.0

*END

*D_NET *148 4.9221062

*CONN
*I *2:Y I
*I *3:D I

*CAP
1 *2:Y 0.0
2 *3:D 0.0135592
3 *148:3 0.010752
4 *148:4 0.0020399999999999997

*RES
1 *148:1 *148:2 0.0
2 *148:2 *148:3 0.0
3 *148:3 *148:4 298.6666666666667
4 *148:4 *148:5 0.0
5 *148:5 *148:6 23.333333333333336
6 *148:6 *148:7 0.0

*END

*D_NET *149 5.0159362000000005

*CONN
*I *22:A I
*I *20:B I
*I *3:Q I

*CAP
1 *22:A 0.0265929
2 *20:B 0.0265339
3 *3:Q 0.0
4 *149:4 0.0102
5 *149:5 0.002016
6 *149:6 0.0020399999999999997
7 *149:7 0.0102
8 *149:8 0.002688

*RES
1 *149:1 *149:2 0.0
2 *149:2 *149:3 116.66666666666667
3 *149:3 *149:4 0.0
4 *149:4 *149:5 56.00000000000001
5 *149:5 *149:6 0.0
6 *149:6 *149:7 23.333333333333336
7 *149:7 *149:8 0.0
8 *149:8 *149:9 0.0
9 *149:9 *149:10 116.66666666666667
10 *149:10 *149:11 0.0
11 *149:11 *149:12 74.66666666666667

*END

*D_NET *150 5.6972022

*CONN
*P *150 I
*I *88:R I
*I *116:R I
*I *110:R I
*I *51:S I
*I *10:S I
*I *66:S I
*I *31:S I
*I *16:R I
*I *37:S I
*I *83:S I
*I *100:S I
*I *87:S I
*I *27:S I
*I *43:S I
*I *26:S I
*I *3:S I

*CAP
1 *88:R 0.0357813
2 *116:R 0.0357813
3 *110:R 0.0357813
4 *51:S 0.0323255
5 *10:S 0.0323255
6 *66:S 0.0323255
7 *31:S 0.0323255
8 *16:R 0.0357813
9 *37:S 0.0323255
10 *83:S 0.0323255
11 *100:S 0.0323255
12 *87:S 0.0323255
13 *27:S 0.0323255
14 *43:S 0.0323255
15 *26:S 0.0323255
16 *3:S 0.0323255
17 *150:17 0.0061200000000000004
18 *150:18 0.000408
19 *150:19 0.0061200000000000004
20 *150:20 0.000408
21 *150:21 0.0061200000000000004
22 *150:22 0.000408
23 *150:23 0.0061200000000000004
24 *150:24 0.0061200000000000004
25 *150:25 0.000408
26 *150:26 0.0061200000000000004
27 *150:27 0.0061200000000000004
28 *150:28 0.000408
29 *150:29 0.0061200000000000004
30 *150:30 0.000408
31 *150:31 0.0061200000000000004
32 *150:32 0.0061200000000000004
33 *150:33 0.0061200000000000004
34 *150:34 0.004079999999999999
35 *150:35 0.000408
36 *150:36 0.004079999999999999
37 *150:37 0.000408
38 *150:38 0.0061200000000000004
39 *150:39 0.0061200000000000004
40 *150:40 0.0061200000000000004

*RES
1 *150:1 *150:2 0.0
2 *150:2 *150:3 70.00000000000001
3 *150:3 *150:4 4.666666666666667
4 *150:4 *150:5 0.0
5 *150:5 *150:6 0.0
6 *150:6 *150:7 70.00000000000001
7 *150:7 *150:8 4.666666666666667
8 *150:8 *150:9 0.0
9 *150:9 *150:10 0.0
10 *150:10 *150:11 70.00000000000001
11 *150:11 *150:12 4.666666666666667
12 *150:12 *150:13 0.0
13 *150:13 *150:14 0.0
14 *150:14 *150:15 70.00000000000001
15 *150:15 *150:16 0.0
16 *150:16 *150:17 0.0
17 *150:17 *150:18 70.00000000000001
18 *150:18 *150:19 4.666666666666667
19 *150:19 *150:20 0.0
20 *150:20 *150:21 0.0
21 *150:21 *150:22 70.00000000000001
22 *150:22 *150:23 0.0
23 *150:23 *150:24 0.0
24 *150:24 *150:25 70.00000000000001
25 *150:25 *150:26 4.666666666666667
26 *150:26 *150:27 0.0
27 *150:27 *150:28 0.0
28 *150:28 *150:29 70.00000000000001
29 *150:29 *150:30 4.666666666666667
30 *150:30 *150:31 0.0
31 *150:31 *150:32 0.0
32 *150:32 *150:33 70.00000000000001
33 *150:33 *150:34 0.0
34 *150:34 *150:35 0.0
35 *150:35 *150:36 70.00000000000001
36 *150:36 *150:37 0.0
37 *150:37 *150:38 0.0
38 *150:38 *150:39 70.00000000000001
39 *150:39 *150:40 0.0
40 *150:40 *150:41 0.0
41 *150:41 *150:42 46.66666666666667
42 *150:42 *150:43 4.666666666666667
43 *150:43 *150:44 0.0
44 *150:44 *150:45 0.0
45 *150:45 *150:46 46.66666666666667
46 *150:46 *150:47 4.666666666666667
47 *150:47 *150:48 0.0
48 *150:48 *150:49 0.0
49 *150:49 *150:50 70.00000000000001
50 *150:50 *150:51 0.0
51 *150:51 *150:52 0.0
52 *150:52 *150:53 70.00000000000001
53 *150:53 *150:54 0.0
54 *150:54 *150:55 0.0
55 *150:55 *150:56 70.00000000000001
56 *150:56 *150:57 0.0

*END

*D_NET *151 6.258592599999998

*CONN
*I *21:Y I
*I *26:D I

*CAP
1 *21:Y 0.0
2 *26:D 0.0135592
3 *151:3 0.0168

*RES
1 *151:1 *151:2 0.0
2 *151:2 *151:3 0.0
3 *151:3 *151:4 466.6666666666667
4 *151:4 *151:5 0.0
5 *151:5 *151:6 0.0

*END

*D_NET *152 6.360690599999998

*CONN
*I *41:A I
*I *22:B I
*I *26:Q I

*CAP
1 *41:A 0.0265929
2 *22:B 0.0265339
3 *26:Q 0.0
4 *152:4 0.0020399999999999997
5 *152:5 0.001344
6 *152:6 0.01152
7 *152:7 0.00018
8 *152:8 0.014279999999999998
9 *152:9 0.006048

*RES
1 *152:1 *152:2 0.0
2 *152:2 *152:3 23.333333333333336
3 *152:3 *152:4 0.0
4 *152:4 *152:5 37.333333333333336
5 *152:5 *152:6 0.0
6 *152:6 *152:7 0.0
7 *152:7 *152:8 74.66666666666667
8 *152:8 *152:9 1.1666666666666667
9 *152:9 *152:10 0.0
10 *152:10 *152:11 163.33333333333337
11 *152:11 *152:12 0.0
12 *152:12 *152:13 168.00000000000003
13 *152:13 *152:14 0.0
14 *152:14 *152:15 0.0

*END

*D_NET *153 6.455048599999998

*CONN
*I *59:Y I
*I *43:D I

*CAP
1 *59:Y 0.0
2 *43:D 0.0135592
3 *153:3 0.0020399999999999997
4 *153:4 0.017471999999999998
5 *153:5 0.008159999999999999

*RES
1 *153:1 *153:2 0.0
2 *153:2 *153:3 23.333333333333336
3 *153:3 *153:4 0.0
4 *153:4 *153:5 485.3333333333334
5 *153:5 *153:6 0.0
6 *153:6 *153:7 93.33333333333334
7 *153:7 *153:8 0.0

*END

*D_NET *154 6.534226599999998

*CONN
*I *42:A I
*I *41:B I
*I *43:Q I

*CAP
1 *42:A 0.0265929
2 *41:B 0.0265339
3 *43:Q 0.0
4 *154:4 0.008459999999999999
5 *154:5 0.004032

*RES
1 *154:1 *154:2 54.83333333333334
2 *154:2 *154:3 0.0
3 *154:3 *154:4 0.0
4 *154:4 *154:5 112.00000000000001
5 *154:5 *154:6 0.0
6 *154:6 *154:7 0.0

*END

*D_NET *155 6.590740199999998

*CONN
*P *155 O
*I *54:Y I

*CAP
1 *54:Y 0.0
2 *155:2 0.0013398000000000001
3 *155:3 0.0020399999999999997

*RES
1 *155:1 *155:2 37.21666666666667
2 *155:2 *155:3 0.0
3 *155:3 *155:4 23.333333333333336
4 *155:4 *155:5 0.0

*END

*D_NET *156 6.609866899999998

*CONN
*I *77:Y I
*I *78:A I

*CAP
1 *77:Y 0.0
2 *78:A 0.0134147
3 *156:3 0.001632
4 *156:4 0.004079999999999999

*RES
1 *156:1 *156:2 0.0
2 *156:2 *156:3 18.666666666666668
3 *156:3 *156:4 46.66666666666667
4 *156:4 *156:5 0.0

*END

*D_NET *157 6.627320599999998

*CONN
*P *157 O
*I *78:Y I

*CAP
1 *78:Y 0.0
2 *157:2 0.004032

*RES
1 *157:1 *157:2 112.00000000000001
2 *157:2 *157:3 0.0
3 *157:3 *157:4 0.0

*END

*D_NET *158 6.683911299999998

*CONN
*I *50:Y I
*I *17:A I

*CAP
1 *50:Y 0.0
2 *17:A 0.0134147
3 *158:3 0.001632
4 *158:4 0.000672
5 *158:5 0.01248
6 *158:6 0.014112
7 *158:7 0.014279999999999998

*RES
1 *158:1 *158:2 0.0
2 *158:2 *158:3 18.666666666666668
3 *158:3 *158:4 0.0
4 *158:4 *158:5 18.666666666666668
5 *158:5 *158:6 0.0
6 *158:6 *158:7 86.66666666666667
7 *158:7 *158:8 0.0
8 *158:8 *158:9 392.00000000000006
9 *158:9 *158:10 0.0
10 *158:10 *158:11 163.33333333333337
11 *158:11 *158:12 0.0

*END

*D_NET *159 6.708684999999998

*CONN
*P *159 O
*I *17:Y I

*CAP
1 *17:Y 0.0
2 *159:2 0.000672
3 *159:3 0.0020399999999999997
4 *159:4 0.00864

*RES
1 *159:1 *159:2 18.666666666666668
2 *159:2 *159:3 0.0
3 *159:3 *159:4 23.333333333333336
4 *159:4 *159:5 0.0
5 *159:5 *159:6 56.00000000000001

*END

*D_NET *160 6.7567556999999985

*CONN
*I *35:Y I
*I *79:A I

*CAP
1 *35:Y 0.0
2 *79:A 0.0134147
3 *160:3 0.002016
4 *160:4 0.032639999999999995

*RES
1 *160:1 *160:2 0.0
2 *160:2 *160:3 0.0
3 *160:3 *160:4 56.00000000000001
4 *160:4 *160:5 0.0
5 *160:5 *160:6 373.33333333333337
6 *160:6 *160:7 0.0

*END

*D_NET *161 6.778649399999999

*CONN
*P *161 O
*I *79:Y I

*CAP
1 *79:Y 0.0
2 *161:2 0.000672
3 *161:3 0.0020399999999999997
4 *161:4 0.00576

*RES
1 *161:1 *161:2 18.666666666666668
2 *161:2 *161:3 0.0
3 *161:3 *161:4 23.333333333333336
4 *161:4 *161:5 0.0
5 *161:5 *161:6 37.333333333333336

*END

*D_NET *162 6.853413999999998

*CONN
*I *31:Q I
*I *50:A I
*I *46:A I

*CAP
1 *31:Q 0.0
2 *50:A 0.0265312
3 *46:A 0.0134094
4 *162:4 0.00288
5 *162:5 0.0036
6 *162:6 0.00864
7 *162:7 0.001344
8 *162:8 0.018359999999999998

*RES
1 *162:1 *162:2 18.666666666666668
2 *162:2 *162:3 23.333333333333336
3 *162:3 *162:4 56.00000000000001
4 *162:4 *162:5 0.0
5 *162:5 *162:6 0.0
6 *162:6 *162:7 37.333333333333336
7 *162:7 *162:8 0.0
8 *162:8 *162:9 210.00000000000003
9 *162:9 *162:10 0.0

*END

*D_NET *163 6.913946399999998

*CONN
*I *45:A I
*I *46:Y I

*CAP
1 *45:A 0.0177118
2 *46:Y 0.0
3 *163:3 0.00288

*RES
1 *163:1 *163:2 18.666666666666668

*END

*D_NET *164 7.1042122999999995

*CONN
*I *110:Q I
*I *73:A I
*I *97:A I
*I *94:A I
*I *111:B I
*I *92:A I

*CAP
1 *110:Q 0.0
2 *73:A 0.0222511
3 *97:A 0.0222369
4 *94:A 0.0177118
5 *111:B 0.0180112
6 *92:A 0.0222511
7 *164:7 0.018359999999999998
8 *164:8 0.00576
9 *164:9 0.00288
10 *164:10 0.005376
11 *164:11 0.004079999999999999
12 *164:12 0.0020399999999999997
13 *164:13 0.006719999999999999
14 *164:14 0.0061200000000000004
15 *164:15 0.008735999999999999
16 *164:16 0.004079999999999999
17 *164:17 0.00576
18 *164:18 0.00018

*RES
1 *164:1 *164:2 0.0
2 *164:2 *164:3 210.00000000000003
3 *164:3 *164:4 0.0
4 *164:4 *164:5 37.333333333333336
5 *164:5 *164:6 18.666666666666668
6 *164:6 *164:7 0.0
7 *164:7 *164:8 0.0
8 *164:8 *164:9 149.33333333333334
9 *164:9 *164:10 0.0
10 *164:10 *164:11 46.66666666666667
11 *164:11 *164:12 0.0
12 *164:12 *164:13 23.333333333333336
13 *164:13 *164:14 0.0
14 *164:14 *164:15 186.66666666666669
15 *164:15 *164:16 0.0
16 *164:16 *164:17 70.00000000000001
17 *164:17 *164:18 0.0
18 *164:18 *164:19 242.6666666666667
19 *164:19 *164:20 0.0
20 *164:20 *164:21 46.66666666666667
21 *164:21 *164:22 37.333333333333336
22 *164:22 *164:23 1.1666666666666667

*END

*D_NET *165 7.346435000000002

*CONN
*I *116:Q I
*I *73:B I
*I *97:B I
*I *94:B I
*I *92:B I

*CAP
1 *116:Q 0.0
2 *73:B 0.022204
3 *97:B 0.0227534
4 *94:B 0.0180112
5 *92:B 0.022204
6 *165:6 0.004704
7 *165:7 0.0020399999999999997
8 *165:8 0.00018
9 *165:9 0.006048
10 *165:10 0.0020399999999999997
11 *165:11 0.00288
12 *165:12 0.014279999999999998
13 *165:13 0.002016
14 *165:14 0.0204

*RES
1 *165:1 *165:2 0.0
2 *165:2 *165:3 0.0
3 *165:3 *165:4 130.66666666666669
4 *165:4 *165:5 0.0
5 *165:5 *165:6 23.333333333333336
6 *165:6 *165:7 0.0
7 *165:7 *165:8 1.1666666666666667
8 *165:8 *165:9 0.0
9 *165:9 *165:10 0.0
10 *165:10 *165:11 168.00000000000003
11 *165:11 *165:12 0.0
12 *165:12 *165:13 23.333333333333336
13 *165:13 *165:14 18.666666666666668
14 *165:14 *165:15 0.0
15 *165:15 *165:16 163.33333333333337
16 *165:16 *165:17 0.0
17 *165:17 *165:18 0.0
18 *165:18 *165:19 56.00000000000001
19 *165:19 *165:20 0.0
20 *165:20 *165:21 233.33333333333334

*END

*D_NET *166 7.544602900000002

*CONN
*I *88:Q I
*I *75:A I