*SPEF "IEEE 1481-1998" 
*DESIGN "crc32"
*DATE "Mon Dec 16 23:34:46 2019"
*VENDOR "ISPD 2013 Contest"
*PROGRAM "Benchmark Parasitic Generator"
*VERSION "0.0"
*DESIGN_FLOW "NETLIST_TYPE_VERILOG"
*DIVIDER /
*DELIMITER :
*BUS_DELIMITER []
*T_UNIT 1 PS
*C_UNIT 1 FF
*R_UNIT 1 KOHM
*L_UNIT 1 UH

*NAME_MAP

*1 DFFSR_20
*2 BUFX2_25
*3 DFFSR_18
*4 BUFX2_23
*5 NAND2X1_135
*6 OAI21X1_57
*7 BUFX2_13
*8 FILL_0_0_0
*9 FILL_0_0_1
*10 FILL_0_0_2
*11 DFFSR_25
*12 NAND2X1_145
*13 OAI21X1_65
*14 XNOR2X1_44
*15 NAND2X1_154
*16 INVX1_27
*17 NAND2X1_151
*18 BUFX2_8
*19 INVX1_17
*20 OAI21X1_41
*21 XNOR2X1_29
*22 AOI22X1_15
*23 NAND2X1_107
*24 NAND2X1_110
*25 NAND2X1_114
*26 AOI22X1_16
*27 NAND2X1_116
*28 BUFX2_35
*29 XNOR2X1_40
*30 XNOR2X1_57
*31 BUFX2_10
*32 BUFX2_29
*33 FILL_0_1_0
*34 FILL_0_1_1
*35 FILL_0_1_2
*36 XNOR2X1_14
*37 XNOR2X1_27
*38 BUFX2_15
*39 DFFSR_10
*40 XOR2X1_3
*41 DFFSR_24
*42 FILL_1_1
*43 FILL_1_2
*44 DFFSR_23
*45 NAND2X1_137
*46 OAI21X1_59
*47 DFFSR_8
*48 NAND2X1_57
*49 NAND2X1_63
*50 XNOR2X1_42
*51 XNOR2X1_43
*52 FILL_1_0_0
*53 FILL_1_0_1
*54 FILL_1_0_2
*55 XNOR2X1_41
*56 XNOR2X1_48
*57 NAND3X1_68
*58 NAND3X1_67
*59 INVX1_28
*60 NAND3X1_69
*61 NAND3X1_66
*62 NAND2X1_152
*63 NAND2X1_153
*64 NAND3X1_45
*65 XNOR2X1_28
*66 NAND3X1_44
*67 NAND2X1_105
*68 NAND2X1_111
*69 NAND2X1_108
*70 NAND2X1_109
*71 NAND2X1_112
*72 NAND2X1_106
*73 NAND2X1_115
*74 NAND2X1_113
*75 XNOR2X1_20
*76 FILL_1_1_0
*77 FILL_1_1_1
*78 FILL_1_1_2
*79 DFFSR_5
*80 INVX1_5
*81 OAI21X1_13
*82 XNOR2X1_15
*83 INVX1_12
*84 NAND3X1_34
*85 NAND3X1_35
*86 NAND2X1_78
*87 NAND2X1_76
*88 NOR2X1_2
*89 NAND2X1_18
*90 OAI21X1_6
*91 INVX1_4
*92 OAI21X1_7
*93 NAND3X1_9
*94 OAI21X1_64
*95 INVX1_25
*96 FILL_2_1
*97 FILL_2_2
*98 FILL_2_3
*99 BUFX2_28
*100 NAND2X1_140
*101 OAI21X1_62
*102 NAND2X1_125
*103 DFFSR_15
*104 XOR2X1_9
*105 NAND2X1_59
*106 XOR2X1_8
*107 NAND2X1_61
*108 XNOR2X1_9
*109 NAND3X1_27
*110 XNOR2X1_10
*111 FILL_2_0_0
*112 FILL_2_0_1
*113 FILL_2_0_2
*114 XNOR2X1_21
*115 BUFX4_30
*116 AOI21X1_30
*117 NAND2X1_159
*118 BUFX4_11
*119 AOI21X1_29
*120 BUFX4_31
*121 AND2X2_12
*122 NAND2X1_117
*123 INVX2_5
*124 DFFSR_3
*125 INVX2_8
*126 OAI21X1_76
*127 XNOR2X1_8
*128 XNOR2X1_58
*129 INVX1_9
*130 AOI21X1_9
*131 NAND2X1_55
*132 FILL_2_1_0
*133 FILL_2_1_1
*134 FILL_2_1_2
*135 XOR2X1_6
*136 XOR2X1_7
*137 NAND3X1_32
*138 NAND2X1_24
*139 AOI21X1_15
*140 OAI21X1_24
*141 OAI21X1_25
*142 NAND3X1_33
*143 INVX1_11
*144 AOI21X1_16
*145 NAND2X1_14
*146 NAND2X1_77
*147 NAND3X1_10
*148 NAND3X1_8
*149 NAND3X1_11
*150 NAND3X1_12
*151 BUFX4_12
*152 FILL_3_1
*153 FILL_3_2
*154 FILL_3_3
*155 BUFX2_20
*156 XOR2X1_24
*157 XNOR2X1_55
*158 BUFX4_28
*159 NAND2X1_131
*160 NAND2X1_104
*161 OAI21X1_46
*162 BUFX2_4
*163 NAND2X1_60
*164 NAND2X1_58
*165 AOI21X1_11
*166 AOI21X1_14
*167 AOI21X1_12
*168 AOI21X1_13
*169 OAI21X1_19
*170 OAI21X1_20
*171 XOR2X1_16
*172 FILL_3_0_0
*173 FILL_3_0_1
*174 FILL_3_0_2
*175 BUFX2_3
*176 XOR2X1_27
*177 OAI21X1_71
*178 OAI21X1_45
*179 NOR2X1_32
*180 XNOR2X1_50
*181 XNOR2X1_49
*182 XOR2X1_26
*183 INVX1_1
*184 XOR2X1_21
*185 XNOR2X1_22
*186 OAI21X1_4
*187 NAND2X1_22
*188 NAND2X1_47
*189 NAND3X1_21
*190 NAND2X1_49
*191 NOR2X1_17
*192 NOR3X1_3
*193 OAI22X1_5
*194 FILL_3_1_0
*195 FILL_3_1_1
*196 FILL_3_1_2
*197 NAND3X1_24
*198 AOI21X1_10
*199 NAND3X1_22
*200 INVX1_8
*201 NAND2X1_23
*202 NOR3X1_4
*203 NOR2X1_20
*204 NOR3X1_5
*205 XNOR2X1_5
*206 NAND2X1_20
*207 AND2X2_1
*208 DFFSR_16
*209 FILL_4_1
*210 BUFX2_19
*211 DFFSR_14
*212 XNOR2X1_37
*213 XNOR2X1_51
*214 XNOR2X1_60
*215 NAND3X1_53
*216 NAND3X1_52
*217 XOR2X1_18
*218 INVX1_22
*219 NAND2X1_129
*220 AOI21X1_22
*221 FILL_4_0_0
*222 FILL_4_0_1
*223 FILL_4_0_2
*224 NAND3X1_49
*225 NAND2X1_128
*226 BUFX4_9
*227 OAI21X1_72
*228 NOR2X1_24
*229 OAI21X1_48
*230 OAI21X1_29
*231 NOR2X1_22
*232 OAI21X1_28
*233 OAI21X1_47
*234 NOR2X1_23
*235 NOR2X1_21
*236 NAND2X1_97
*237 AND2X2_8
*238 NAND3X1_54
*239 AOI21X1_26
*240 NAND3X1_55
*241 INVX1_24
*242 OAI21X1_54
*243 NAND3X1_56
*244 NAND2X1_54
*245 NAND2X1_53
*246 AOI22X1_8
*247 NAND2X1_12
*248 NAND2X1_46
*249 NAND2X1_13
*250 FILL_4_1_0
*251 FILL_4_1_1
*252 FILL_4_1_2
*253 AOI22X1_6
*254 OAI21X1_17
*255 NAND2X1_50
*256 NAND3X1_23
*257 OAI21X1_18
*258 NOR2X1_16
*259 NAND2X1_52
*260 NAND3X1_6
*261 XOR2X1_2
*262 AOI21X1_27
*263 BUFX4_10
*264 NAND2X1_143
*265 NAND2X1_142
*266 NAND2X1_144
*267 BUFX4_13
*268 OAI21X1_55
*269 NAND3X1_60
*270 INVX1_23
*271 NAND2X1_21
*272 FILL_5_1
*273 FILL_5_2
*274 DFFSR_28
*275 BUFX4_18
*276 XNOR2X1_38
*277 OR2X2_6
*278 NAND2X1_156
*279 NAND3X1_70
*280 INVX8_2
*281 INVX1_10
*282 NAND2X1_130
*283 INVX1_19
*284 OAI22X1_8
*285 BUFX4_15
*286 AND2X2_7
*287 NAND2X1_62
*288 FILL_5_0_0
*289 FILL_5_0_1
*290 FILL_5_0_2
*291 XNOR2X1_2
*292 BUFX4_33
*293 INVX2_7
*294 BUFX4_1
*295 AND2X2_13
*296 NAND2X1_124
*297 XNOR2X1_52
*298 NAND2X1_155
*299 NAND2X1_120
*300 NAND2X1_96
*301 NOR2X1_25
*302 NOR2X1_26
*303 OAI21X1_52
*304 OAI22X1_7
*305 NOR2X1_29
*306 NAND3X1_41
*307 BUFX4_36
*308 NAND2X1_15
*309 NAND2X1_16
*310 NAND2X1_17
*311 AOI22X1_7
*312 NAND2X1_11
*313 NAND2X1_48
*314 INVX2_2
*315 NAND2X1_38
*316 FILL_5_1_0
*317 FILL_5_1_1
*318 FILL_5_1_2
*319 NAND2X1_5
*320 NAND2X1_6
*321 NAND2X1_4
*322 NAND2X1_51
*323 AOI21X1_8
*324 XNOR2X1_3
*325 NAND3X1_5
*326 NAND3X1_3
*327 OAI21X1_63
*328 NAND3X1_58
*329 AOI21X1_28
*330 NAND3X1_57
*331 DFFSR_4
*332 FILL_6_1
*333 FILL_6_2
*334 FILL_6_3
*335 BUFX2_26
*336 BUFX2_31
*337 BUFX2_12
*338 BUFX2_2
*339 INVX1_13
*340 OAI21X1_34
*341 XNOR2X1_56
*342 XNOR2X1_34
*343 XNOR2X1_33
*344 XOR2X1_19
*345 NAND2X1_126
*346 OAI21X1_73
*347 NAND3X1_50
*348 AOI21X1_23
*349 NAND3X1_51
*350 AOI21X1_24
*351 INVX1_21
*352 FILL_6_0_0
*353 FILL_6_0_1
*354 FILL_6_0_2
*355 NAND3X1_36
*356 OAI21X1_32
*357 OAI21X1_33
*358 AOI22X1_9
*359 NAND2X1_79
*360 AOI21X1_17
*361 AOI22X1_10
*362 NOR2X1_5
*363 BUFX4_2
*364 NAND2X1_121
*365 AOI21X1_21
*366 NAND3X1_47
*367 NAND3X1_48
*368 NOR2X1_30
*369 OAI21X1_53
*370 NOR2X1_39
*371 AOI21X1_25
*372 AOI22X1_13
*373 NAND2X1_94
*374 OAI21X1_39
*375 NOR2X1_27
*376 INVX1_16
*377 NAND2X1_100
*378 NOR2X1_28
*379 BUFX4_4
*380 FILL_6_1_0
*381 FILL_6_1_1
*382 FILL_6_1_2
*383 NAND2X1_45
*384 NAND2X1_56
*385 INVX1_31
*386 XOR2X1_1
*387 XNOR2X1_1
*388 NAND2X1_8
*389 NAND2X1_7
*390 NAND2X1_9
*391 NAND3X1_7
*392 INVX1_2
*393 OAI21X1_5
*394 NAND3X1_2
*395 NAND2X1_2
*396 OAI21X1_3
*397 OAI21X1_1
*398 NAND3X1_4
*399 AOI21X1_1
*400 NAND3X1_1
*401 OAI21X1_2
*402 DFFSR_11
*403 DFFSR_31
*404 NOR2X1_34
*405 INVX1_20
*406 NOR2X1_35
*407 OAI21X1_49
*408 NAND2X1_127
*409 XOR2X1_20
*410 NOR2X1_37
*411 FILL_7_0_0
*412 FILL_7_0_1
*413 FILL_7_0_2
*414 OAI21X1_50
*415 NOR2X1_36
*416 XOR2X1_10
*417 AOI21X1_18
*418 OAI21X1_27
*419 OAI21X1_11
*420 OAI21X1_31
*421 OAI21X1_9
*422 NOR2X1_6
*423 NAND3X1_25
*424 OAI21X1_44
*425 AND2X2_11
*426 NAND2X1_119
*427 OAI21X1_42
*428 AND2X2_10
*429 NOR2X1_38
*430 OAI21X1_51
*431 NAND2X1_95
*432 OAI21X1_38
*433 INVX1_15
*434 BUFX4_21
*435 NAND2X1_101
*436 AOI22X1_14
*437 NAND2X1_99
*438 NAND2X1_98
*439 FILL_7_1_0
*440 FILL_7_1_1
*441 FILL_7_1_2
*442 DFFSR_7
*443 NAND2X1_162
*444 XNOR2X1_4
*445 INVX1_3
*446 NOR2X1_1
*447 INVX2_4
*448 NAND2X1_164
*449 AND2X2_16
*450 NAND2X1_165
*451 NAND2X1_166
*452 AOI22X1_1
*453 NAND2X1_1
*454 NAND2X1_3
*455 XOR2X1_13
*456 FILL_8_1
*457 FILL_8_2
*458 BUFX2_16
*459 DFFSR_22
*460 OAI21X1_61
*461 OAI21X1_75
*462 NAND2X1_158
*463 XNOR2X1_46
*464 XNOR2X1_61
*465 XOR2X1_22
*466 BUFX4_20
*467 BUFX4_16
*468 XNOR2X1_59
*469 FILL_8_0_0
*470 FILL_8_0_1
*471 FILL_8_0_2
*472 XNOR2X1_31
*473 NAND3X1_26
*474 NAND2X1_27
*475 OAI21X1_10
*476 OAI21X1_30
*477 OAI21X1_26
*478 NOR2X1_3
*479 OAI21X1_8
*480 NAND2X1_25
*481 NAND2X1_118
*482 INVX1_18
*483 NAND3X1_46
*484 NAND2X1_133
*485 OR2X2_5
*486 DFFSR_32
*487 AND2X2_6
*488 NAND2X1_36
*489 BUFX4_3
*490 NAND2X1_132
*491 NAND2X1_35
*492 FILL_8_1_0
*493 FILL_8_1_1
*494 FILL_8_1_2
*495 AOI22X1_2
*496 AOI22X1_4
*497 NAND2X1_39
*498 OAI21X1_14
*499 NOR2X1_14
*500 XOR2X1_5
*501 NAND2X1_70
*502 NAND2X1_19
*503 XNOR2X1_39
*504 NAND2X1_134
*505 XNOR2X1_17
*506 DFFSR_2
*507 BUFX2_27
*508 BUFX2_1
*509 XNOR2X1_30
*510 XNOR2X1_32
*511 BUFX4_17
*512 NAND2X1_139
*513 XOR2X1_25
*514 XNOR2X1_53
*515 XNOR2X1_54
*516 DFFSR_29
*517 FILL_9_0_0
*518 FILL_9_0_1
*519 FILL_9_0_2
*520 BUFX4_6
*521 INVX2_6
*522 BUFX4_24
*523 BUFX4_35
*524 XNOR2X1_16
*525 XOR2X1_14
*526 BUFX2_5
*527 NOR2X1_4
*528 BUFX4_7
*529 BUFX4_25
*530 XOR2X1_17
*531 AOI21X1_20
*532 NAND2X1_122
*533 NAND2X1_123
*534 AND2X2_9
*535 NAND2X1_103
*536 NOR2X1_33
*537 NOR2X1_15
*538 OAI21X1_15
*539 BUFX4_22
*540 NAND2X1_37
*541 NAND2X1_40
*542 OR2X2_4
*543 INVX2_3
*544 FILL_9_1_0
*545 FILL_9_1_1
*546 FILL_9_1_2
*547 AOI22X1_5
*548 AOI22X1_3
*549 BUFX4_23
*550 INVX1_6
*551 NOR2X1_13
*552 OR2X2_2
*553 NAND3X1_13
*554 AOI21X1_3
*555 NAND2X1_26
*556 OR2X2_1
*557 OAI21X1_56
*558 DFFSR_17
*559 BUFX4_26
*560 BUFX2_22
*561 FILL_10_1
*562 FILL_10_2
*563 BUFX2_24
*564 DFFSR_26
*565 NAND2X1_146
*566 OAI21X1_66
*567 BUFX4_27
*568 BUFX4_29
*569 XNOR2X1_45
*570 BUFX4_32
*571 OAI21X1_74
*572 NAND2X1_157
*573 DFFSR_30
*574 FILL_10_0_0
*575 FILL_10_0_1
*576 FILL_10_0_2
*577 XNOR2X1_25
*578 INVX1_14
*579 OAI21X1_40
*580 INVX4_2
*581 NAND3X1_43
*582 XNOR2X1_18
*583 XOR2X1_15
*584 NOR2X1_31
*585 OAI21X1_43
*586 XNOR2X1_26
*587 NAND2X1_102
*588 NAND2X1_93
*589 NAND3X1_42
*590 BUFX4_34
*591 NAND2X1_83
*592 INVX1_7
*593 NAND2X1_82
*594 OR2X2_3
*595 NAND2X1_91
*596 NAND2X1_92
*597 BUFX4_19
*598 FILL_10_1_0
*599 FILL_10_1_1
*600 FILL_10_1_2
*601 AND2X2_3
*602 NAND2X1_43
*603 OAI22X1_1
*604 OAI22X1_2
*605 AOI21X1_5
*606 AOI21X1_4
*607 INVX2_9
*608 NAND3X1_16
*609 NAND3X1_15
*610 OAI21X1_12
*611 AOI21X1_2
*612 NAND3X1_14
*613 DFFSR_27
*614 FILL_11_1
*615 FILL_11_2
*616 BUFX2_17
*617 DFFSR_19
*618 OAI21X1_58
*619 NAND2X1_136
*620 XOR2X1_23
*621 XNOR2X1_47
*622 OAI21X1_77
*623 NAND2X1_160
*624 BUFX4_14
*625 XNOR2X1_12
*626 FILL_11_0_0
*627 FILL_11_0_1
*628 FILL_11_0_2
*629 DFFSR_13
*630 XOR2X1_12
*631 XNOR2X1_13
*632 NAND3X1_29
*633 NAND3X1_37
*634 NAND3X1_31
*635 NAND3X1_38
*636 NAND2X1_73
*637 NOR2X1_18
*638 XNOR2X1_19
*639 BUFX4_5
*640 XNOR2X1_24
*641 XNOR2X1_23
*642 NAND2X1_84
*643 AOI22X1_12
*644 NAND2X1_66
*645 NAND2X1_64
*646 NAND2X1_65
*647 FILL_11_1_0
*648 FILL_11_1_1
*649 FILL_11_1_2
*650 AOI22X1_11
*651 NAND2X1_90
*652 NOR2X1_8
*653 NAND2X1_89
*654 INVX4_3
*655 NAND2X1_34
*656 NOR3X1_1
*657 NOR3X1_2
*658 OAI21X1_78
*659 NAND2X1_32
*660 XOR2X1_4
*661 NAND2X1_161
*662 XNOR2X1_7
*663 NAND2X1_30
*664 NAND3X1_65
*665 NAND3X1_64
*666 DFFSR_12
*667 NAND2X1_81
*668 OAI21X1_35
*669 DFFSR_9
*670 NAND2X1_75
*671 OAI21X1_23
*672 INVX8_1
*673 NAND2X1_33
*674 NAND2X1_44
*675 FILL_12_0_0
*676 FILL_12_0_1
*677 FILL_12_0_2
*678 BUFX4_8
*679 XNOR2X1_35
*680 BUFX2_18
*681 XNOR2X1_11
*682 NAND2X1_74
*683 NAND2X1_80
*684 NAND2X1_67
*685 NAND3X1_28
*686 NAND2X1_71
*687 NAND3X1_30
*688 NAND2X1_72
*689 OAI21X1_22
*690 OAI21X1_21
*691 OAI21X1_36
*692 NOR2X1_19
*693 AND2X2_5
*694 NAND3X1_40
*695 NAND2X1_85
*696 NAND2X1_86
*697 OAI22X1_6
*698 NAND2X1_41
*699 AOI21X1_6
*700 NAND3X1_18
*701 NAND3X1_19
*702 FILL_12_1_0
*703 FILL_12_1_1
*704 FILL_12_1_2
*705 NAND3X1_20
*706 OAI21X1_16
*707 INVX2_1
*708 XNOR2X1_6
*709 NAND2X1_163
*710 NOR2X1_41
*711 OAI21X1_69
*712 NAND2X1_148
*713 NAND2X1_149
*714 NAND3X1_63
*715 OAI21X1_67
*716 NAND3X1_61
*717 NAND2X1_150
*718 OAI21X1_68
*719 NOR2X1_40
*720 NAND3X1_62
*721 BUFX2_9
*722 BUFX2_21
*723 INVX1_29
*724 BUFX2_32
*725 FILL_13_1
*726 FILL_13_2
*727 FILL_13_3
*728 DFFSR_21
*729 OAI21X1_60
*730 NAND2X1_138
*731 DFFSR_1
*732 BUFX2_33
*733 BUFX2_14
*734 BUFX2_6
*735 FILL_13_0_0
*736 FILL_13_0_1
*737 FILL_13_0_2
*738 DFFSR_6
*739 BUFX2_34
*740 XNOR2X1_36
*741 XOR2X1_11
*742 BUFX2_30
*743 NAND2X1_69
*744 NAND2X1_68
*745 BUFX2_11
*746 AND2X2_4
*747 NOR2X1_11
*748 OAI22X1_4
*749 NOR2X1_12
*750 NOR3X1_6
*751 OAI21X1_37
*752 NAND2X1_88
*753 NAND3X1_39
*754 AOI21X1_19
*755 NAND2X1_87
*756 INVX1_30
*757 BUFX2_37
*758 NAND2X1_42
*759 NAND3X1_17
*760 FILL_13_1_0
*761 FILL_13_1_1
*762 FILL_13_1_2
*763 AOI21X1_7
*764 NOR2X1_7
*765 OAI22X1_3
*766 NOR2X1_10
*767 NOR2X1_9
*768 BUFX2_36
*769 AND2X2_15
*770 INVX4_1
*771 NOR2X1_42
*772 NAND2X1_29
*773 NAND2X1_31
*774 NAND2X1_28
*775 AND2X2_2
*776 NAND2X1_147
*777 NAND2X1_141
*778 OAI21X1_70
*779 AND2X2_14
*780 NAND3X1_59
*781 NAND2X1_10
*782 INVX1_26
*783 BUFX2_7
*784 FILL_14_1
*785 _539_<31>
*786 _539__31_bF$buf3
*787 _539__31_bF$buf2
*788 _539__31_bF$buf1
*789 _539__31_bF$buf0
*790 _539_<28>
*791 _539__28_bF$buf3
*792 _539__28_bF$buf2
*793 _539__28_bF$buf1
*794 _539__28_bF$buf0
*795 clk
*796 clk_bF$buf4
*797 clk_bF$buf3
*798 clk_bF$buf2
*799 clk_bF$buf1
*800 clk_bF$buf0
*801 crc_en
*802 crc_en_bF$buf4
*803 crc_en_bF$buf3
*804 crc_en_bF$buf2
*805 crc_en_bF$buf1
*806 crc_en_bF$buf0
*807 _540_
*808 _540__bF$buf4
*809 _540__bF$buf3
*810 _540__bF$buf2
*811 _540__bF$buf1
*812 _540__bF$buf0
*813 _539_<30>
*814 _539__30_bF$buf3
*815 _539__30_bF$buf2
*816 _539__30_bF$buf1
*817 _539__30_bF$buf0
*818 data_in<3>
*819 data_in_3_bF$buf3
*820 data_in_3_bF$buf2
*821 data_in_3_bF$buf1
*822 data_in_3_bF$buf0
*823 _516_
*824 _516__bF$buf5
*825 _516__bF$buf4
*826 _516__bF$buf3
*827 _516__bF$buf2
*828 _516__bF$buf1
*829 _516__bF$buf0
*830 _539_<29>
*831 _539__29_bF$buf3
*832 _539__29_bF$buf2
*833 _539__29_bF$buf1
*834 _539__29_bF$buf0
*835 _524_
*836 _527_
*837 _533_
*838 _536_
*839 _537_
*840 _538_
*841 _535_
*842 _1_
*843 _534_
*844 _532_
*845 _2_
*846 _3_
*847 data_in<6>
*848 data_in<7>
*849 _4_
*850 _5_
*851 _6_
*852 _7_
*853 _8_
*854 _9_
*855 _10_
*856 data_in<1>
*857 _11_
*858 _539_<24>
*859 _12_
*860 _13_
*861 _14_
*862 _15_
*863 _16_
*864 _17_
*865 _18_
*866 _19_
*867 _20_
*868 _521_
*869 _0_<1>
*870 _539_<2>
*871 _21_
*872 _539_<26>
*873 data_in<2>
*874 _22_
*875 _23_
*876 _24_
*877 _25_
*878 _26_
*879 _27_
*880 _0_<2>
*881 _539_<3>
*882 _28_
*883 _29_
*884 _539_<25>
*885 _30_
*886 _530_
*887 _31_
*888 _32_
*889 _33_
*890 _34_
*891 _35_
*892 _36_
*893 _37_
*894 _38_
*895 _39_
*896 _539_<27>
*897 _40_
*898 _41_
*899 _42_
*900 _43_
*901 _44_
*902 _45_
*903 _46_
*904 _47_
*905 _48_
*906 _49_
*907 _50_
*908 _51_
*909 _52_
*910 _53_
*911 _54_
*912 _55_
*913 _56_
*914 _0_<3>
*915 _539_<4>
*916 _57_
*917 data_in<0>
*918 _58_
*919 _59_
*920 _60_
*921 _61_
*922 _62_
*923 _63_
*924 _64_
*925 _65_
*926 _66_
*927 _67_
*928 _68_
*929 _69_
*930 _70_
*931 _71_
*932 _72_
*933 data_in<4>
*934 _73_
*935 _74_
*936 _75_
*937 _76_
*938 _77_
*939 _78_
*940 _79_
*941 _80_
*942 _81_
*943 _82_
*944 _83_
*945 _84_
*946 _85_
*947 _86_
*948 _87_
*949 _88_
*950 _89_
*951 _90_
*952 _91_
*953 _92_
*954 _93_
*955 _94_
*956 _0_<4>
*957 _539_<5>
*958 _95_
*959 _522_
*960 _523_
*961 _96_
*962 _97_
*963 _98_
*964 _99_
*965 _100_
*966 _101_
*967 _102_
*968 _103_
*969 _104_
*970 _105_
*971 _106_
*972 _539_<0>
*973 crc_out<0>
*974 _539_<1>
*975 crc_out<1>
*976 crc_out<2>
*977 crc_out<3>
*978 crc_out<4>
*979 crc_out<5>
*980 _539_<6>
*981 crc_out<6>
*982 _539_<7>
*983 crc_out<7>
*984 _539_<8>
*985 crc_out<8>
*986 _539_<9>
*987 crc_out<9>
*988 _539_<10>
*989 crc_out<10>
*990 _539_<11>
*991 crc_out<11>
*992 _539_<12>
*993 crc_out<12>
*994 _539_<13>
*995 crc_out<13>
*996 _539_<14>
*997 crc_out<14>
*998 _539_<15>
*999 crc_out<15>
*1000 _539_<16>
*1001 crc_out<16>
*1002 _539_<17>
*1003 crc_out<17>
*1004 _539_<18>
*1005 crc_out<18>
*1006 _539_<19>
*1007 crc_out<19>
*1008 _539_<20>
*1009 crc_out<20>
*1010 _539_<21>
*1011 crc_out<21>
*1012 _539_<22>
*1013 crc_out<22>
*1014 _539_<23>
*1015 crc_out<23>
*1016 crc_out<24>
*1017 crc_out<25>
*1018 crc_out<26>
*1019 crc_out<27>
*1020 crc_out<28>
*1021 crc_out<29>
*1022 crc_out<30>
*1023 crc_out<31>
*1024 _0_<0>
*1025 vdd
*1026 _0_<5>
*1027 _0_<6>
*1028 _0_<7>
*1029 _0_<8>
*1030 _0_<9>
*1031 _0_<10>
*1032 _0_<11>
*1033 _0_<12>
*1034 _0_<13>
*1035 _0_<14>
*1036 _0_<15>
*1037 _0_<16>
*1038 _0_<17>
*1039 _0_<18>
*1040 _0_<19>
*1041 _0_<20>
*1042 _0_<21>
*1043 _0_<22>
*1044 _0_<23>
*1045 _0_<24>
*1046 _0_<25>
*1047 _0_<26>
*1048 _0_<27>
*1049 _0_<28>
*1050 _0_<29>
*1051 _0_<30>
*1052 _0_<31>
*1053 _107_
*1054 _108_
*1055 _109_
*1056 _110_
*1057 _111_
*1058 _112_
*1059 _113_
*1060 _114_
*1061 _115_
*1062 _116_
*1063 _117_
*1064 data_in<5>
*1065 _118_
*1066 _119_
*1067 _120_
*1068 _529_
*1069 _121_
*1070 _525_
*1071 _122_
*1072 _123_
*1073 _124_
*1074 _125_
*1075 _126_
*1076 _127_
*1077 _128_
*1078 _129_
*1079 _130_
*1080 _131_
*1081 _132_
*1082 _133_
*1083 _134_
*1084 _135_
*1085 _136_
*1086 _137_
*1087 _138_
*1088 _139_
*1089 _140_
*1090 _141_
*1091 _142_
*1092 _143_
*1093 _144_
*1094 _145_
*1095 _146_
*1096 _147_
*1097 _148_
*1098 _149_
*1099 _150_
*1100 _151_
*1101 _152_
*1102 _153_
*1103 _154_
*1104 _155_
*1105 _156_
*1106 _157_
*1107 _158_
*1108 _159_
*1109 _160_
*1110 _161_
*1111 _162_
*1112 _163_
*1113 _164_
*1114 _165_
*1115 _166_
*1116 _167_
*1117 _168_
*1118 _169_
*1119 _170_
*1120 _171_
*1121 _172_
*1122 _173_
*1123 _174_
*1124 _175_
*1125 _176_
*1126 _177_
*1127 _178_
*1128 _179_
*1129 _180_
*1130 _181_
*1131 _182_
*1132 _183_
*1133 _184_
*1134 _185_
*1135 _186_
*1136 _187_
*1137 _188_
*1138 _189_
*1139 _190_
*1140 _191_
*1141 _192_
*1142 _193_
*1143 _194_
*1144 _195_
*1145 _196_
*1146 _197_
*1147 _198_
*1148 _199_
*1149 _200_
*1150 _201_
*1151 _202_
*1152 _203_
*1153 _204_
*1154 _205_
*1155 _206_
*1156 _207_
*1157 _208_
*1158 _209_
*1159 _210_
*1160 _211_
*1161 _212_
*1162 _213_
*1163 _214_
*1164 _215_
*1165 _216_
*1166 _217_
*1167 _218_
*1168 _219_
*1169 _220_
*1170 _221_
*1171 _222_
*1172 _223_
*1173 _224_
*1174 _225_
*1175 _226_
*1176 _227_
*1177 _228_
*1178 _229_
*1179 _230_
*1180 _231_
*1181 _232_
*1182 _233_
*1183 _234_
*1184 _235_
*1185 _236_
*1186 _237_
*1187 _238_
*1188 _239_
*1189 _240_
*1190 _241_
*1191 _242_
*1192 _243_
*1193 _244_
*1194 _245_
*1195 _246_
*1196 _247_
*1197 _248_
*1198 _249_
*1199 _250_
*1200 _251_
*1201 _252_
*1202 _253_
*1203 _254_
*1204 _255_
*1205 _256_
*1206 _257_
*1207 _258_
*1208 _259_
*1209 _260_
*1210 _261_
*1211 _262_
*1212 _263_
*1213 _264_
*1214 _265_
*1215 _266_
*1216 _267_
*1217 _268_
*1218 _269_
*1219 _270_
*1220 _271_
*1221 _272_
*1222 _273_
*1223 _274_
*1224 _275_
*1225 _276_
*1226 _277_
*1227 _278_
*1228 _279_
*1229 _280_
*1230 _281_
*1231 _282_
*1232 _283_
*1233 _284_
*1234 _285_
*1235 _286_
*1236 _287_
*1237 _288_
*1238 _289_
*1239 _290_
*1240 _291_
*1241 _292_
*1242 _293_
*1243 _294_
*1244 _295_
*1245 _296_
*1246 _297_
*1247 _298_
*1248 _299_
*1249 _300_
*1250 _301_
*1251 _302_
*1252 _303_
*1253 _304_
*1254 _305_
*1255 _306_
*1256 _307_
*1257 _308_
*1258 _309_
*1259 _310_
*1260 _311_
*1261 _312_
*1262 _313_
*1263 _314_
*1264 _315_
*1265 _316_
*1266 _317_
*1267 _318_
*1268 _319_
*1269 _320_
*1270 _321_
*1271 _322_
*1272 _323_
*1273 _324_
*1274 _325_
*1275 _326_
*1276 _327_
*1277 _328_
*1278 _329_
*1279 _330_
*1280 _331_
*1281 _332_
*1282 _333_
*1283 _334_
*1284 _335_
*1285 _336_
*1286 _337_
*1287 _338_
*1288 _339_
*1289 _340_
*1290 _341_
*1291 _342_
*1292 _343_
*1293 _344_
*1294 _345_
*1295 _346_
*1296 _347_
*1297 _348_
*1298 _349_
*1299 _350_
*1300 _351_
*1301 _352_
*1302 _353_
*1303 _354_
*1304 _355_
*1305 _356_
*1306 _357_
*1307 _358_
*1308 _359_
*1309 _360_
*1310 _361_
*1311 _362_
*1312 _363_
*1313 _364_
*1314 _365_
*1315 _366_
*1316 _367_
*1317 _368_
*1318 _369_
*1319 _370_
*1320 _371_
*1321 _372_
*1322 _373_
*1323 _374_
*1324 _375_
*1325 _376_
*1326 _377_
*1327 _378_
*1328 _379_
*1329 _380_
*1330 _381_
*1331 _382_
*1332 _383_
*1333 _384_
*1334 _385_
*1335 _386_
*1336 _387_
*1337 _388_
*1338 _389_
*1339 _390_
*1340 _391_
*1341 _392_
*1342 _393_
*1343 _394_
*1344 _395_
*1345 _396_
*1346 _397_
*1347 _398_
*1348 _399_
*1349 _400_
*1350 _401_
*1351 _402_
*1352 _403_
*1353 _404_
*1354 _405_
*1355 _406_
*1356 _407_
*1357 _408_
*1358 _409_
*1359 _410_
*1360 _411_
*1361 _412_
*1362 _413_
*1363 _414_
*1364 _415_
*1365 _416_
*1366 _417_
*1367 _418_
*1368 _419_
*1369 _420_
*1370 _421_
*1371 _422_
*1372 _423_
*1373 _424_
*1374 _425_
*1375 _426_
*1376 _427_
*1377 _428_
*1378 _517_
*1379 _429_
*1380 _430_
*1381 _431_
*1382 _432_
*1383 _433_
*1384 _434_
*1385 _435_
*1386 _436_
*1387 _437_
*1388 _438_
*1389 _439_
*1390 _440_
*1391 _441_
*1392 _518_
*1393 _442_
*1394 _443_
*1395 _444_
*1396 _445_
*1397 _446_
*1398 _447_
*1399 _448_
*1400 _449_
*1401 _450_
*1402 _451_
*1403 _452_
*1404 _453_
*1405 _454_
*1406 _455_
*1407 _456_
*1408 _457_
*1409 _458_
*1410 _459_
*1411 _460_
*1412 _461_
*1413 _462_
*1414 _463_
*1415 _464_
*1416 _465_
*1417 _466_
*1418 _526_
*1419 _467_
*1420 _468_
*1421 _469_
*1422 _470_
*1423 _471_
*1424 _472_
*1425 _473_
*1426 _474_
*1427 _475_
*1428 _476_
*1429 _477_
*1430 _478_
*1431 _479_
*1432 _480_
*1433 _481_
*1434 _482_
*1435 _483_
*1436 _484_
*1437 _485_
*1438 _486_
*1439 _487_
*1440 _488_
*1441 _489_
*1442 _490_
*1443 _491_
*1444 _492_
*1445 _493_
*1446 _494_
*1447 _495_
*1448 _496_
*1449 _497_
*1450 _498_
*1451 _499_
*1452 _500_
*1453 _501_
*1454 _502_
*1455 _503_
*1456 _504_
*1457 _505_
*1458 _506_
*1459 _507_
*1460 _508_
*1461 _509_
*1462 _510_
*1463 _511_
*1464 _512_
*1465 _513_
*1466 _514_
*1467 _515_
*1468 rst
*1469 _519_
*1470 _520_
*1471 _528_
*1472 _531_

*D_NET *785 1.282206

*CONN
*I *486:Q O
*I *379:A I
*I *489:A I
*I *363:A I
*I *294:A I

*CAP
1 *486:Q 0.0
2 *379:A 0.0139855
3 *489:A 0.0139855
4 *363:A 0.0139855
5 *294:A 0.0139855
6 *785:6 0.09198
7 *785:7 0.16675199999999998
8 *785:8 0.05256
9 *785:9 0.01314
10 *785:10 0.09548
11 *785:11 0.176016
12 *785:12 0.05256
13 *785:13 0.05256
14 *785:14 0.314976
15 *785:15 0.21024

*RES
1 *785:1 *785:2 0.1
2 *785:2 *785:3 373.33333333333337
3 *785:3 *785:4 0.08
4 *785:4 *785:5 768.0
5 *785:5 *785:6 0.08
6 *785:6 *785:7 213.33333333333334
7 *785:7 *785:8 0.1
8 *785:8 *785:9 0.1
9 *785:9 *785:10 53.333333333333336
10 *785:10 *785:11 0.08
11 *785:11 *785:12 0.06
12 *785:12 *785:13 513.3333333333335
13 *785:13 *785:14 0.06
14 *785:14 *785:15 810.6666666666667
15 *785:15 *785:16 0.08
16 *785:16 *785:17 213.33333333333334
17 *785:17 *785:18 0.1
18 *785:18 *785:19 213.33333333333334
19 *785:19 *785:20 0.08
20 *785:20 *785:21 1450.6666666666667
21 *785:21 *785:22 0.1
22 *785:22 *785:23 853.3333333333334
23 *785:23 *785:24 0.08

*END

*D_NET *786 2.6135498999999998

*CONN
*I *117:A I
*I *217:A I
*I *50:B I
*I *106:B I
*I *110:B I
*I *294:Y O

*CAP
1 *117:A 0.0125
2 *217:A 0.0296528
3 *50:B 0.0342715
4 *106:B 0.0342661
5 *110:B 0.0342715
6 *294:Y 0.0
7 *786:7 0.014624000000000002
8 *786:8 0.01314
9 *786:9 0.010512
10 *786:10 0.31536000000000003
11 *786:11 0.02628
12 *786:12 0.21307199999999998
13 *786:13 0.01314
14 *786:14 0.027791999999999997
15 *786:15 0.15768000000000001
16 *786:16 0.01314
17 *786:17 0.13896
18 *786:18 0.01314
19 *786:19 0.1736

*RES
1 *786:1 *786:2 42.66666666666667
2 *786:2 *786:3 0.1
3 *786:3 *786:4 53.333333333333336
4 *786:4 *786:5 42.66666666666667
5 *786:5 *786:6 1280.0
6 *786:6 *786:7 0.1
7 *786:7 *786:8 0.1
8 *786:8 *786:9 106.66666666666667
9 *786:9 *786:10 0.08
10 *786:10 *786:11 981.3333333333335
11 *786:11 *786:12 0.08
12 *786:12 *786:13 0.1
13 *786:13 *786:14 53.333333333333336
14 *786:14 *786:15 0.08
15 *786:15 *786:16 128.0
16 *786:16 *786:17 0.08
17 *786:17 *786:18 640.0
18 *786:18 *786:19 0.1
19 *786:19 *786:20 53.333333333333336
20 *786:20 *786:21 0.08
21 *786:21 *786:22 640.0
22 *786:22 *786:23 0.08
23 *786:23 *786:24 0.1
24 *786:24 *786:25 53.333333333333336
25 *786:25 *786:26 0.08
26 *786:26 *786:27 0.06
27 *786:27 *786:28 933.3333333333334
28 *786:28 *786:29 0.06

*END

*D_NET *787 3.8562504

*CONN
*I *485:A I
*I *472:B I
*I *428:A I
*I *368:A I
*I *481:A I
*I *363:Y O

*CAP
1 *485:A 0.015065
2 *472:B 0.0342715
3 *428:A 0.0129068
4 *368:A 0.0144193
5 *481:A 0.0125
6 *363:Y 0.0
7 *787:7 0.21024
8 *787:8 0.037056
9 *787:9 0.02628
10 *787:10 0.02628
11 *787:11 0.157488
12 *787:12 0.01314
13 *787:13 0.010512
14 *787:14 0.06570000000000001
15 *787:15 0.15768000000000001
16 *787:16 0.02628
17 *787:17 0.27792

*RES
1 *787:1 *787:2 0.1
2 *787:2 *787:3 853.3333333333334
3 *787:3 *787:4 0.08
4 *787:4 *787:5 170.66666666666669
5 *787:5 *787:6 0.08
6 *787:6 *787:7 106.66666666666667
7 *787:7 *787:8 0.1
8 *787:8 *787:9 0.1
9 *787:9 *787:10 106.66666666666667
10 *787:10 *787:11 0.08
11 *787:11 *787:12 725.3333333333334
12 *787:12 *787:13 0.08
13 *787:13 *787:14 0.1
14 *787:14 *787:15 53.333333333333336
15 *787:15 *787:16 42.66666666666667
16 *787:16 *787:17 266.6666666666667
17 *787:17 *787:18 0.1
18 *787:18 *787:19 640.0
19 *787:19 *787:20 0.08
20 *787:20 *787:21 0.1
21 *787:21 *787:22 106.66666666666667
22 *787:22 *787:23 0.08
23 *787:23 *787:24 1280.0
24 *787:24 *787:25 0.08

*END

*D_NET *788 4.526573710000001

*CONN
*I *541:A I
*I *540:A I
*I *757:A I
*I *542:A I
*I *489:Y O

*CAP
1 *541:A 0.0125
2 *540:A 0.0125
3 *757:A 0.00933171
4 *542:A 0.015065
5 *489:Y 0.0
6 *788:6 0.09198
7 *788:7 0.014624000000000002
8 *788:8 0.014624000000000002
9 *788:9 0.027791999999999997
10 *788:10 0.02628
11 *788:11 0.009264
12 *788:12 0.3472

*RES
1 *788:1 *788:2 0.1
2 *788:2 *788:3 373.33333333333337
3 *788:3 *788:4 0.1
4 *788:4 *788:5 42.66666666666667
5 *788:5 *788:6 42.66666666666667
6 *788:6 *788:7 0.1
7 *788:7 *788:8 0.08
8 *788:8 *788:9 128.0
9 *788:9 *788:10 0.08
10 *788:10 *788:11 0.1
11 *788:11 *788:12 106.66666666666667
12 *788:12 *788:13 0.08
13 *788:13 *788:14 42.66666666666667
14 *788:14 *788:15 0.06
15 *788:15 *788:16 1866.6666666666667
16 *788:16 *788:17 0.06

*END

*D_NET *789 5.2638647800000005

*CONN
*I *395:A I
*I *385:A I
*I *393:C I
*I *450:A I
*I *379:Y O

*CAP
1 *395:A 0.0125
2 *385:A 0.00932456
3 *393:C 0.0129138
4 *450:A 0.0125
5 *379:Y 0.0
6 *789:6 0.101904
7 *789:7 0.02628
8 *789:8 0.361296
9 *789:9 0.01314
10 *789:10 0.06570000000000001
11 *789:11 0.009264
12 *789:12 0.010512
13 *789:13 0.05256

*RES
1 *789:1 *789:2 0.1
2 *789:2 *789:3 0.08
3 *789:3 *789:4 469.33333333333337
4 *789:4 *789:5 0.08
5 *789:5 *789:6 0.1
6 *789:6 *789:7 0.1
7 *789:7 *789:8 106.66666666666667
8 *789:8 *789:9 0.08
9 *789:9 *789:10 1664.0
10 *789:10 *789:11 0.08
11 *789:11 *789:12 53.333333333333336
12 *789:12 *789:13 0.1
13 *789:13 *789:14 266.6666666666667
14 *789:14 *789:15 0.08
15 *789:15 *789:16 42.66666666666667
16 *789:16 *789:17 0.1
17 *789:17 *789:18 42.66666666666667
18 *789:18 *789:19 213.33333333333334
19 *789:19 *789:20 0.08

*END

*D_NET *790 6.547835140000002

*CONN
*I *516:Q O
*I *678:A I
*I *528:A I
*I *520:A I
*I *639:A I

*CAP
1 *516:Q 0.0
2 *678:A 0.0139855
3 *528:A 0.0139855
4 *520:A 0.0139855
5 *639:A 0.0139855
6 *790:6 0.13140000000000002
7 *790:7 0.2316
8 *790:8 0.13140000000000002
9 *790:9 0.055583999999999995
10 *790:10 0.02604
11 *790:11 0.305712
12 *790:12 0.072206
13 *790:13 0.018528
14 *790:14 0.20832

*RES
1 *790:1 *790:2 0.1
2 *790:2 *790:3 533.3333333333334
3 *790:3 *790:4 0.08
4 *790:4 *790:5 1066.6666666666667
5 *790:5 *790:6 0.08
6 *790:6 *790:7 533.3333333333334
7 *790:7 *790:8 0.1
8 *790:8 *790:9 0.1
9 *790:9 *790:10 0.08
10 *790:10 *790:11 256.0
11 *790:11 *790:12 0.06
12 *790:12 *790:13 140.00000000000003
13 *790:13 *790:14 0.06
14 *790:14 *790:15 1408.0000000000002
15 *790:15 *790:16 0.08
16 *790:16 *790:17 210.66666666666669
17 *790:17 *790:18 0.1
18 *790:18 *790:19 0.08
19 *790:19 *790:20 85.33333333333334
20 *790:20 *790:21 0.06
21 *790:21 *790:22 1120.0000000000002

*END

*D_NET *791 7.105622540000003

*CONN
*I *593:A I
*I *641:B I
*I *595:A I
*I *638:A I
*I *594:B I
*I *639:Y O

*CAP
1 *593:A 0.0125
2 *641:B 0.0342715
3 *595:A 0.0125
4 *638:A 0.0296656
5 *594:B 0.0143643
6 *639:Y 0.0
7 *791:7 0.01314
8 *791:8 0.027791999999999997
9 *791:9 0.01314
10 *791:10 0.08337599999999999
11 *791:11 0.02628
12 *791:12 0.064848
13 *791:13 0.05256
14 *791:14 0.02628
15 *791:15 0.037056
16 *791:16 0.02628
17 *791:17 0.027791999999999997

*RES
1 *791:1 *791:2 0.1
2 *791:2 *791:3 53.333333333333336
3 *791:3 *791:4 0.08
4 *791:4 *791:5 128.0
5 *791:5 *791:6 0.08
6 *791:6 *791:7 0.1
7 *791:7 *791:8 0.1
8 *791:8 *791:9 53.333333333333336
9 *791:9 *791:10 0.08
10 *791:10 *791:11 384.0
11 *791:11 *791:12 0.1
12 *791:12 *791:13 106.66666666666667
13 *791:13 *791:14 0.08
14 *791:14 *791:15 298.6666666666667
15 *791:15 *791:16 0.08
16 *791:16 *791:17 213.33333333333334
17 *791:17 *791:18 0.1
18 *791:18 *791:19 106.66666666666667
19 *791:19 *791:20 0.08
20 *791:20 *791:21 170.66666666666669
21 *791:21 *791:22 0.1
22 *791:22 *791:23 106.66666666666667
23 *791:23 *791:24 0.08
24 *791:24 *791:25 128.0

*END

*D_NET *792 8.055239140000001

*CONN
*I *410:B I
*I *409:B I
*I *521:A I
*I *344:A I
*I *404:A I
*I *520:Y O

*CAP
1 *410:B 0.0150643
2 *409:B 0.0342661
3 *521:A 0.0186567
4 *344:A 0.0296528
5 *404:A 0.0144193
6 *520:Y 0.0
7 *792:7 0.029248000000000003
8 *792:8 0.039420000000000004
9 *792:9 0.055583999999999995
10 *792:10 0.13140000000000002
11 *792:11 0.010512
12 *792:12 0.05256
13 *792:13 0.05256
14 *792:14 0.027791999999999997
15 *792:15 0.06570000000000001
16 *792:16 0.176016
17 *792:17 0.014624000000000002
18 *792:18 0.07884000000000001

*RES
1 *792:1 *792:2 85.33333333333334
2 *792:2 *792:3 0.1
3 *792:3 *792:4 160.0
4 *792:4 *792:5 0.08
5 *792:5 *792:6 256.0
6 *792:6 *792:7 0.08
7 *792:7 *792:8 533.3333333333334
8 *792:8 *792:9 42.66666666666667
9 *792:9 *792:10 213.33333333333334
10 *792:10 *792:11 0.1
11 *792:11 *792:12 0.1
12 *792:12 *792:13 213.33333333333334
13 *792:13 *792:14 0.08
14 *792:14 *792:15 128.0
15 *792:15 *792:16 0.1
16 *792:16 *792:17 266.6666666666667
17 *792:17 *792:18 0.08
18 *792:18 *792:19 810.6666666666667
19 *792:19 *792:20 42.66666666666667
20 *792:20 *792:21 0.1
21 *792:21 *792:22 320.0

*END

*D_NET *793 10.233970939999997

*CONN
*I *488:A I
*I *136:A I
*I *497:B I
*I *201:B I
*I *182:A I
*I *528:Y O

*CAP
1 *488:A 0.0125
2 *136:A 0.0296528
3 *497:B 0.0129035
4 *201:B 0.0129035
5 *182:A 0.0296528
6 *528:Y 0.0
7 *793:7 0.01314
8 *793:8 0.009264
9 *793:9 0.36456
10 *793:10 0.009264
11 *793:11 0.1971
12 *793:12 0.07884000000000001
13 *793:13 0.09263999999999999
14 *793:14 0.02628
15 *793:15 0.027791999999999997
16 *793:16 0.02604
17 *793:17 0.305712
18 *793:18 0.22233599999999998
19 *793:19 0.01314
20 *793:20 0.011579999999999998
21 *793:21 0.42532
22 *793:22 0.027791999999999997
23 *793:23 0.11826

*RES
1 *793:1 *793:2 0.1