*SPEF "IEEE 1481-1998" 
*DESIGN "o8_cpu"
*DATE "Mon Dec 16 23:34:54 2019"
*VENDOR "ISPD 2013 Contest"
*PROGRAM "Benchmark Parasitic Generator"
*VERSION "0.0"
*DESIGN_FLOW "NETLIST_TYPE_VERILOG"
*DIVIDER /
*DELIMITER :
*BUS_DELIMITER []
*T_UNIT 1 PS
*C_UNIT 1 FF
*R_UNIT 1 KOHM
*L_UNIT 1 UH

*NAME_MAP

*1 DFFPOSX1_14
*2 BUFX2_9
*3 BUFX4_16
*4 DFFPOSX1_20
*5 BUFX2_15
*6 DFFPOSX1_17
*7 BUFX2_12
*8 BUFX2_39
*9 FILL_0_0_0
*10 FILL_0_0_1
*11 FILL_0_0_2
*12 DFFPOSX1_44
*13 DFFPOSX1_31
*14 BUFX2_26
*15 BUFX2_1
*16 BUFX2_41
*17 DFFPOSX1_46
*18 BUFX2_20
*19 DFFPOSX1_25
*20 DFFPOSX1_33
*21 FILL_0_1_0
*22 FILL_0_1_1
*23 FILL_0_1_2
*24 BUFX2_28
*25 DFFPOSX1_28
*26 BUFX4_17
*27 BUFX2_23
*28 DFFPOSX1_19
*29 BUFX2_14
*30 BUFX2_32
*31 DFFPOSX1_37
*32 FILL_1_1
*33 DFFPOSX1_41
*34 BUFX2_36
*35 BUFX2_6
*36 DFFPOSX1_11
*37 BUFX4_14
*38 DFFPOSX1_18
*39 BUFX2_13
*40 FILL_1_0_0
*41 FILL_1_0_1
*42 FILL_1_0_2
*43 DFFPOSX1_15
*44 BUFX2_10
*45 BUFX2_18
*46 BUFX2_19
*47 DFFPOSX1_24
*48 BUFX2_33
*49 BUFX2_17
*50 DFFPOSX1_22
*51 BUFX2_45
*52 BUFX2_44
*53 DFFPOSX1_55
*54 BUFX4_2
*55 FILL_1_1_0
*56 FILL_1_1_1
*57 FILL_1_1_2
*58 DFFPOSX1_40
*59 BUFX2_35
*60 DFFPOSX1_84
*61 DFFPOSX1_35
*62 BUFX2_2
*63 DFFPOSX1_82
*64 FILL_2_1
*65 DFFPOSX1_34
*66 BUFX2_29
*67 DFFPOSX1_45
*68 BUFX2_40
*69 BUFX4_8
*70 BUFX2_11
*71 DFFPOSX1_16
*72 BUFX2_5
*73 FILL_2_0_0
*74 FILL_2_0_1
*75 FILL_2_0_2
*76 DFFPOSX1_10
*77 DFFPOSX1_23
*78 DFFPOSX1_38
*79 DFFPOSX1_85
*80 BUFX4_9
*81 DFFPOSX1_49
*82 NOR2X1_7
*83 FILL_2_1_0
*84 FILL_2_1_1
*85 FILL_2_1_2
*86 DFFPOSX1_81
*87 INVX1_5
*88 NOR3X1_1
*89 NOR2X1_10
*90 INVX1_8
*91 NAND3X1_4
*92 NOR3X1_2
*93 INVX1_7
*94 NOR2X1_9
*95 DFFPOSX1_83
*96 FILL_3_1
*97 FILL_3_2
*98 DFFPOSX1_26
*99 BUFX2_21
*100 DFFPOSX1_30
*101 BUFX2_25
*102 BUFX2_31
*103 INVX4_1
*104 BUFX2_3
*105 DFFPOSX1_3
*106 FILL_3_0_0
*107 FILL_3_0_1
*108 FILL_3_0_2
*109 BUFX4_4
*110 DFFPOSX1_73
*111 DFFPOSX1_58
*112 DFFPOSX1_51
*113 INVX1_18
*114 OAI21X1_39
*115 INVX1_3
*116 DFFPOSX1_80
*117 OAI21X1_38
*118 INVX1_2
*119 NAND3X1_3
*120 NAND2X1_3
*121 FILL_3_1_0
*122 FILL_3_1_1
*123 FILL_3_1_2
*124 NOR2X1_4
*125 NOR2X1_2
*126 NOR3X1_3
*127 OAI21X1_1
*128 NOR2X1_6
*129 AOI22X1_1
*130 NAND3X1_2
*131 BUFX2_30
*132 NAND3X1_1
*133 NOR2X1_3
*134 NAND2X1_1
*135 NOR2X1_8
*136 BUFX2_16
*137 INVX2_1
*138 FILL_4_1
*139 FILL_4_2
*140 DFFPOSX1_48
*141 BUFX2_43
*142 DFFPOSX1_36
*143 INVX1_29
*144 OAI21X1_51
*145 DFFPOSX1_52
*146 OAI21X1_5
*147 FILL_4_0_0
*148 FILL_4_0_1
*149 FILL_4_0_2
*150 DFFPOSX1_57
*151 OAI21X1_31
*152 OAI21X1_42
*153 INVX1_21
*154 OAI21X1_4
*155 NAND3X1_6
*156 INVX1_9
*157 OAI21X1_43
*158 INVX1_22
*159 OAI21X1_6
*160 INVX1_10
*161 NAND3X1_7
*162 OAI21X1_50
*163 NOR2X1_5
*164 INVX1_4
*165 DFFPOSX1_86
*166 NAND2X1_6
*167 OAI21X1_20
*168 FILL_4_1_0
*169 FILL_4_1_1
*170 FILL_4_1_2
*171 NAND3X1_15
*172 NAND3X1_13
*173 NAND3X1_14
*174 INVX1_1
*175 OAI21X1_29
*176 AOI21X1_2
*177 OAI21X1_19
*178 AOI21X1_1
*179 MUX2X1_1
*180 NAND2X1_4
*181 DFFPOSX1_1
*182 FILL_5_1
*183 BUFX4_15
*184 BUFX2_22
*185 DFFPOSX1_27
*186 DFFPOSX1_66
*187 DFFPOSX1_65
*188 DFFPOSX1_77
*189 FILL_5_0_0
*190 FILL_5_0_1
*191 FILL_5_0_2
*192 OAI21X1_22
*193 OAI21X1_35
*194 OAI21X1_23
*195 OAI21X1_32
*196 DFFPOSX1_74
*197 INVX1_13
*198 NAND3X1_10
*199 BUFX4_11
*200 OAI21X1_7
*201 DFFPOSX1_4
*202 BUFX4_7
*203 DFFPOSX1_8
*204 FILL_5_1_0
*205 FILL_5_1_1
*206 FILL_5_1_2
*207 OAI21X1_15
*208 BUFX4_12
*209 NOR2X1_1
*210 NOR2X1_11
*211 INVX1_16
*212 INVX1_19
*213 NAND2X1_2
*214 AOI21X1_3
*215 NAND2X1_5
*216 OAI21X1_18
*217 OAI21X1_40
*218 INVX1_17
*219 AOI21X1_4
*220 NOR2X1_12
*221 BUFX2_4
*222 BUFX2_70
*223 FILL_6_1
*224 DFFPOSX1_12
*225 BUFX2_7
*226 BUFX2_24
*227 DFFPOSX1_29
*228 DFFPOSX1_7
*229 OAI21X1_13
*230 FILL_6_0_0
*231 FILL_6_0_1
*232 FILL_6_0_2
*233 DFFPOSX1_69
*234 OAI21X1_26
*235 DFFPOSX1_6
*236 OAI21X1_11
*237 OAI21X1_12
*238 OAI21X1_25
*239 DFFPOSX1_68
*240 BUFX4_6
*241 DFFPOSX1_70
*242 OAI21X1_27
*243 NAND3X1_11
*244 INVX1_14
*245 FILL_6_1_0
*246 FILL_6_1_1
*247 FILL_6_1_2
*248 OAI21X1_14
*249 INVX1_26
*250 OAI21X1_47
*251 OAI21X1_36
*252 DFFPOSX1_62
*253 DFFPOSX1_78
*254 DFFPOSX1_21
*255 FILL_7_1
*256 FILL_7_2
*257 FILL_7_3
*258 DFFPOSX1_13
*259 BUFX2_8
*260 BUFX2_37
*261 DFFPOSX1_42
*262 BUFX4_3
*263 DFFPOSX1_67
*264 FILL_7_0_0
*265 FILL_7_0_1
*266 FILL_7_0_2
*267 DFFPOSX1_60
*268 OAI21X1_24
*269 BUFX4_1
*270 OAI21X1_33
*271 OAI21X1_45
*272 INVX1_24
*273 OAI21X1_10
*274 NAND3X1_9
*275 INVX1_12
*276 OAI21X1_34
*277 BUFX4_10
*278 DFFPOSX1_76
*279 DFFPOSX1_64
*280 OAI21X1_28
*281 OAI21X1_21
*282 FILL_7_1_0
*283 FILL_7_1_1
*284 FILL_7_1_2
*285 BUFX4_5
*286 BUFX4_13
*287 OAI21X1_2
*288 INVX1_20
*289 OAI21X1_41
*290 DFFPOSX1_56
*291 BUFX2_38
*292 BUFX2_42
*293 DFFPOSX1_47
*294 BUFX2_64
*295 DFFPOSX1_39
*296 BUFX2_34
*297 BUFX2_27
*298 BUFX2_46
*299 BUFX2_52
*300 BUFX2_53
*301 BUFX2_51
*302 DFFPOSX1_5
*303 OAI21X1_9
*304 FILL_8_0_0
*305 FILL_8_0_1
*306 FILL_8_0_2
*307 DFFPOSX1_59
*308 DFFPOSX1_75
*309 OAI21X1_44
*310 INVX1_23
*311 OAI21X1_8
*312 INVX1_25
*313 OAI21X1_46
*314 NAND3X1_8
*315 INVX1_11
*316 DFFPOSX1_63
*317 OAI21X1_48
*318 INVX1_27
*319 OAI21X1_16
*320 NAND3X1_12
*321 INVX1_15
*322 INVX1_6
*323 NAND3X1_5
*324 FILL_8_1_0
*325 FILL_8_1_1
*326 FILL_8_1_2
*327 OAI21X1_3
*328 OAI21X1_17
*329 OAI21X1_37
*330 OAI21X1_30
*331 DFFPOSX1_9
*332 DFFPOSX1_43
*333 BUFX2_63
*334 BUFX2_68
*335 BUFX2_67
*336 FILL_9_1
*337 FILL_9_2
*338 DFFPOSX1_32
*339 BUFX2_48
*340 BUFX2_47
*341 BUFX2_50
*342 BUFX2_49
*343 BUFX2_60
*344 BUFX2_55
*345 BUFX2_54
*346 BUFX2_61
*347 BUFX2_58
*348 BUFX2_56
*349 BUFX2_59
*350 BUFX2_57
*351 FILL_9_0_0
*352 FILL_9_0_1
*353 FILL_9_0_2
*354 DFFPOSX1_50
*355 OAI21X1_49
*356 INVX1_28
*357 DFFPOSX1_61
*358 DFFPOSX1_53
*359 OAI21X1_52
*360 INVX1_30
*361 DFFPOSX1_54
*362 OAI21X1_53
*363 INVX1_31
*364 DFFPOSX1_71
*365 FILL_9_1_0
*366 FILL_9_1_1
*367 FILL_9_1_2
*368 DFFPOSX1_2
*369 DFFPOSX1_72
*370 DFFPOSX1_79
*371 BUFX2_71
*372 BUFX2_65
*373 BUFX2_69
*374 BUFX2_66
*375 BUFX2_62
*376 clk_i
*377 clk_i_bF$buf8
*378 clk_i_bF$buf7
*379 clk_i_bF$buf6
*380 clk_i_bF$buf5
*381 clk_i_bF$buf4
*382 clk_i_bF$buf3
*383 clk_i_bF$buf2
*384 clk_i_bF$buf1
*385 clk_i_bF$buf0
*386 _68_
*387 _68__bF$buf3
*388 _68__bF$buf2
*389 _68__bF$buf1
*390 _68__bF$buf0
*391 pg_zf
*392 pg_zf_bF$buf6
*393 pg_zf_bF$buf5
*394 pg_zf_bF$buf4
*395 pg_zf_bF$buf3
*396 pg_zf_bF$buf2
*397 pg_zf_bF$buf1
*398 pg_zf_bF$buf0
*399 autocarry
*400 rst_i
*401 _10_
*402 _11_
*403 state<0>
*404 _12_
*405 state<1>
*406 _13_
*407 state<3>
*408 state<4>
*409 _14_
*410 state<2>
*411 _15_
*412 _16_
*413 _17_
*414 _18_
*415 ac_sel<0>
*416 op_cf
*417 _19_
*418 _20_
*419 autocarry_next
*420 _21_
*421 _22_
*422 _23_
*423 _24_
*424 _25_
*425 _26_
*426 _27_
*427 _28_
*428 data_i<0>
*429 _29_
*430 _30_
*431 _31_
*432 _32_
*433 _33_
*434 _34_
*435 _35_
*436 alu_res<0>
*437 _36_
*438 _5_<0>
*439 data_i<1>
*440 _37_
*441 _38_
*442 alu_res<1>
*443 _39_
*444 _5_<1>
*445 data_i<2>
*446 _40_
*447 _41_
*448 alu_res<2>
*449 _42_
*450 _5_<2>
*451 data_i<3>
*452 _43_
*453 _44_
*454 alu_res<3>
*455 _45_
*456 _5_<3>
*457 data_i<4>
*458 _46_
*459 _47_
*460 alu_res<4>
*461 _48_
*462 _5_<4>
*463 data_i<5>
*464 _49_
*465 _50_
*466 alu_res<5>
*467 _51_
*468 _5_<5>
*469 data_i<6>
*470 _52_
*471 _53_
*472 alu_res<6>
*473 _54_
*474 _5_<6>
*475 data_i<7>
*476 _55_
*477 _56_
*478 op_sf
*479 _57_
*480 _5_<7>
*481 _58_
*482 _59_
*483 ac_which<2>
*484 _60_
*485 _61_
*486 _62_
*487 _63_
*488 _64_
*489 _65_
*490 _66_
*491 _67_
*492 _69_
*493 _70_
*494 _71_
*495 _72_
*496 _1_<8>
*497 _1_<9>
*498 _1_<10>
*499 _1_<11>
*500 _1_<12>
*501 _1_<13>
*502 _1_<14>
*503 _1_<15>
*504 _73_
*505 _2_<0>
*506 _2_<1>
*507 _2_<2>
*508 _2_<3>
*509 _2_<4>
*510 _2_<5>
*511 _2_<6>
*512 _2_<7>
*513 _74_
*514 _9_<0>
*515 _9_<1>
*516 _9_<2>
*517 _9_<3>
*518 _9_<4>
*519 prev_cf
*520 _75_
*521 alu_cf
*522 _76_
*523 _77_
*524 _78_
*525 _7_<7>
*526 _4_<7>
*527 _79_
*528 _1_<0>
*529 _80_
*530 _1_<1>
*531 _81_
*532 _1_<2>
*533 _82_
*534 _1_<3>
*535 _83_
*536 _1_<4>
*537 _84_
*538 _1_<5>
*539 _85_
*540 _1_<6>
*541 _86_
*542 _1_<7>
*543 op_zf
*544 _87_
*545 _0_<0>
*546 _0_<1>
*547 alu.of_out
*548 _88_
*549 _0_<2>
*550 _89_
*551 _0_<3>
*552 _90_
*553 _0_<4>
*554 _93_
*555 _6_<0>
*556 _6_<1>
*557 _6_<2>
*558 _6_<3>
*559 _6_<4>
*560 _6_<5>
*561 _6_<6>
*562 _6_<7>
*563 _3_<0>
*564 _3_<1>
*565 _3_<2>
*566 _3_<3>
*567 _3_<4>
*568 _3_<5>
*569 _3_<6>
*570 _3_<7>
*571 _3_<8>
*572 _3_<9>
*573 _3_<10>
*574 _3_<11>
*575 _3_<12>
*576 _3_<13>
*577 _3_<14>
*578 _3_<15>
*579 _8_<0>
*580 _8_<1>
*581 _8_<2>
*582 _8_<3>
*583 _8_<4>
*584 _8_<5>
*585 _8_<6>
*586 _8_<7>
*587 _8_<8>
*588 _8_<9>
*589 _8_<10>
*590 _8_<11>
*591 _8_<12>
*592 _8_<13>
*593 _8_<14>
*594 _8_<15>
*595 _0_<5>
*596 _91_<7>
*597 addr_o<0>
*598 addr_o<1>
*599 addr_o<2>
*600 addr_o<3>
*601 addr_o<4>
*602 addr_o<5>
*603 addr_o<6>
*604 addr_o<7>
*605 _91_<15>
*606 addr_o<8>
*607 addr_o<9>
*608 addr_o<10>
*609 addr_o<11>
*610 addr_o<12>
*611 addr_o<13>
*612 addr_o<14>
*613 addr_o<15>
*614 _92_<7>
*615 data_o<0>
*616 data_o<1>
*617 data_o<2>
*618 data_o<3>
*619 data_o<4>
*620 data_o<5>
*621 data_o<6>
*622 data_o<7>
*623 rd_o
*624 gnd
*625 wr_o

*D_NET *376 3.0385934999999997

*CONN
*I *80:A I
*I *69:A I
*I *202:A I
*I *240:A I
*I *285:A I
*I *109:A I
*I *262:A I
*I *54:A I
*I *269:A I

*CAP
1 *80:A 0.0139855
2 *69:A 0.0139855
3 *202:A 0.0139855
4 *240:A 0.0139855
5 *285:A 0.0139855
6 *109:A 0.0139855
7 *262:A 0.0139855
8 *54:A 0.0139855
9 *269:A 0.0139855
10 *376:10 0.02628
11 *376:11 0.296448
12 *376:12 0.02628
13 *376:13 0.09198
14 *376:14 0.33350399999999997
15 *376:15 0.02628
16 *376:16 0.101904
17 *376:17 0.11826
18 *376:18 0.02628
19 *376:19 0.28718399999999994
20 *376:20 0.27594
21 *376:21 0.018528
22 *376:22 0.13140000000000002
23 *376:23 0.01314
24 *376:24 0.16675199999999998
25 *376:25 0.13140000000000002
26 *376:26 0.010512
27 *376:27 0.49932
28 *376:28 0.05256
29 *376:29 0.21307199999999998
30 *376:30 0.06570000000000001

*RES
1 *376:1 *376:2 0.1
2 *376:2 *376:3 106.66666666666667
3 *376:3 *376:4 0.08
4 *376:4 *376:5 1365.3333333333335
5 *376:5 *376:6 0.08
6 *376:6 *376:7 106.66666666666667
7 *376:7 *376:8 0.1
8 *376:8 *376:9 0.1
9 *376:9 *376:10 373.33333333333337
10 *376:10 *376:11 0.08
11 *376:11 *376:12 1536.0
12 *376:12 *376:13 0.1
13 *376:13 *376:14 106.66666666666667
14 *376:14 *376:15 0.08
15 *376:15 *376:16 469.33333333333337
16 *376:16 *376:17 0.08
17 *376:17 *376:18 480.0
18 *376:18 *376:19 0.1
19 *376:19 *376:20 106.66666666666667
20 *376:20 *376:21 0.08
21 *376:21 *376:22 1322.6666666666667
22 *376:22 *376:23 0.1
23 *376:23 *376:24 1120.0
24 *376:24 *376:25 0.08
25 *376:25 *376:26 85.33333333333334
26 *376:26 *376:27 0.08
27 *376:27 *376:28 533.3333333333334
28 *376:28 *376:29 0.1
29 *376:29 *376:30 53.333333333333336
30 *376:30 *376:31 0.08
31 *376:31 *376:32 768.0
32 *376:32 *376:33 0.08
33 *376:33 *376:34 533.3333333333334
34 *376:34 *376:35 0.1
35 *376:35 *376:36 42.66666666666667
36 *376:36 *376:37 2026.6666666666667
37 *376:37 *376:38 0.08
38 *376:38 *376:39 0.1
39 *376:39 *376:40 213.33333333333334
40 *376:40 *376:41 0.08
41 *376:41 *376:42 981.3333333333335
42 *376:42 *376:43 0.08
43 *376:43 *376:44 266.6666666666667

*END

*D_NET *377 4.729556

*CONN
*I *145:CLK I
*I *228:CLK I
*I *188:CLK I
*I *233:CLK I
*I *263:CLK I
*I *187:CLK I
*I *186:CLK I
*I *235:CLK I
*I *267:CLK I
*I *150:CLK I
*I *269:Y O

*CAP
1 *145:CLK 0.0279235
2 *228:CLK 0.0279235
3 *188:CLK 0.0279235
4 *233:CLK 0.0279235
5 *263:CLK 0.0279235
6 *187:CLK 0.0279235
7 *186:CLK 0.0279235
8 *235:CLK 0.0279235
9 *267:CLK 0.0279235
10 *150:CLK 0.0279235
11 *269:Y 0.0
12 *377:12 0.07884000000000001
13 *377:13 0.014624000000000002
14 *377:14 0.08337599999999999
15 *377:15 0.09198
16 *377:16 0.15768000000000001
17 *377:17 0.13896
18 *377:18 0.07884000000000001
19 *377:19 0.0009140000000000001
20 *377:20 0.18396
21 *377:21 0.09198
22 *377:22 0.26280000000000003
23 *377:23 0.101904

*RES
1 *377:1 *377:2 0.1
2 *377:2 *377:3 320.0
3 *377:3 *377:4 0.1
4 *377:4 *377:5 42.66666666666667
5 *377:5 *377:6 0.1
6 *377:6 *377:7 0.08
7 *377:7 *377:8 384.0
8 *377:8 *377:9 0.08
9 *377:9 *377:10 0.1
10 *377:10 *377:11 373.33333333333337
11 *377:11 *377:12 0.1
12 *377:12 *377:13 640.0
13 *377:13 *377:14 0.1
14 *377:14 *377:15 0.1
15 *377:15 *377:16 0.08
16 *377:16 *377:17 640.0
17 *377:17 *377:18 0.1
18 *377:18 *377:19 320.0
19 *377:19 *377:20 0.1
20 *377:20 *377:21 2.666666666666667
21 *377:21 *377:22 0.1
22 *377:22 *377:23 746.6666666666667
23 *377:23 *377:24 0.1
24 *377:24 *377:25 373.33333333333337
25 *377:25 *377:26 0.1
26 *377:26 *377:27 1066.6666666666667
27 *377:27 *377:28 0.1
28 *377:28 *377:29 0.08
29 *377:29 *377:30 469.33333333333337
30 *377:30 *377:31 0.08

*END

*D_NET *378 6.470901999999999

*CONN
*I *58:CLK I
*I *181:CLK I
*I *20:CLK I
*I *63:CLK I
*I *61:CLK I
*I *95:CLK I
*I *31:CLK I
*I *25:CLK I
*I *60:CLK I
*I *28:CLK I
*I *54:Y O

*CAP
1 *58:CLK 0.0279235
2 *181:CLK 0.0279235
3 *20:CLK 0.0279235
4 *63:CLK 0.0279235
5 *61:CLK 0.0279235
6 *95:CLK 0.0279235
7 *31:CLK 0.0279235
8 *25:CLK 0.0279235
9 *60:CLK 0.0279235
10 *28:CLK 0.0279235
11 *54:Y 0.0
12 *378:12 0.05256
13 *378:13 0.08337599999999999
14 *378:14 0.039420000000000004
15 *378:15 0.01314
16 *378:16 0.11116799999999999
17 *378:17 0.09198
18 *378:18 0.01314
19 *378:19 0.11116799999999999
20 *378:20 0.07884000000000001
21 *378:21 0.101904
22 *378:22 0.06570000000000001
23 *378:23 0.17082
24 *378:24 0.24966

*RES
1 *378:1 *378:2 0.1
2 *378:2 *378:3 213.33333333333334
3 *378:3 *378:4 0.1
4 *378:4 *378:5 0.1
5 *378:5 *378:6 0.08
6 *378:6 *378:7 384.0
7 *378:7 *378:8 0.08
8 *378:8 *378:9 160.0
9 *378:9 *378:10 0.1
10 *378:10 *378:11 53.333333333333336
11 *378:11 *378:12 0.08
12 *378:12 *378:13 512.0
13 *378:13 *378:14 0.1
14 *378:14 *378:15 373.33333333333337
15 *378:15 *378:16 0.08
16 *378:16 *378:17 0.1
17 *378:17 *378:18 53.333333333333336
18 *378:18 *378:19 0.08
19 *378:19 *378:20 512.0
20 *378:20 *378:21 0.1
21 *378:21 *378:22 320.0
22 *378:22 *378:23 0.1
23 *378:23 *378:24 0.1
24 *378:24 *378:25 0.08
25 *378:25 *378:26 469.33333333333337
26 *378:26 *378:27 0.08
27 *378:27 *378:28 0.1
28 *378:28 *378:29 266.6666666666667
29 *378:29 *378:30 0.1
30 *378:30 *378:31 0.1
31 *378:31 *378:32 693.3333333333334
32 *378:32 *378:33 0.1
33 *378:33 *378:34 1013.3333333333334
34 *378:34 *378:35 0.1

*END

*D_NET *379 8.033015999999998

*CONN
*I *354:CLK I
*I *308:CLK I
*I *261:CLK I
*I *338:CLK I
*I *307:CLK I
*I *224:CLK I
*I *302:CLK I
*I *295:CLK I
*I *227:CLK I
*I *258:CLK I
*I *262:Y O

*CAP
1 *354:CLK 0.0279235
2 *308:CLK 0.0279235
3 *261:CLK 0.0279235
4 *338:CLK 0.0279235
5 *307:CLK 0.0279235
6 *224:CLK 0.0279235
7 *302:CLK 0.0279235
8 *295:CLK 0.0279235
9 *227:CLK 0.0279235
10 *258:CLK 0.0279235
11 *262:Y 0.0
12 *379:12 0.055583999999999995
13 *379:13 0.01314
14 *379:14 0.06570000000000001
15 *379:15 0.14454
16 *379:16 0.027791999999999997
17 *379:17 0.01314
18 *379:18 0.101904
19 *379:19 0.07884000000000001
20 *379:20 0.17082
21 *379:21 0.09198
22 *379:22 0.01314
23 *379:23 0.12043199999999998
24 *379:24 0.07884000000000001
25 *379:25 0.027791999999999997

*RES
1 *379:1 *379:2 0.1
2 *379:2 *379:3 0.08
3 *379:3 *379:4 256.0
4 *379:4 *379:5 0.08
5 *379:5 *379:6 53.333333333333336
6 *379:6 *379:7 0.1
7 *379:7 *379:8 0.1
8 *379:8 *379:9 266.6666666666667
9 *379:9 *379:10 0.1
10 *379:10 *379:11 0.1
11 *379:11 *379:12 586.6666666666667
12 *379:12 *379:13 0.08
13 *379:13 *379:14 128.0
14 *379:14 *379:15 0.1
15 *379:15 *379:16 53.333333333333336
16 *379:16 *379:17 0.08
17 *379:17 *379:18 469.33333333333337
18 *379:18 *379:19 0.08
19 *379:19 *379:20 0.1
20 *379:20 *379:21 320.0
21 *379:21 *379:22 0.1
22 *379:22 *379:23 693.3333333333334
23 *379:23 *379:24 0.1
24 *379:24 *379:25 373.33333333333337
25 *379:25 *379:26 0.1
26 *379:26 *379:27 53.333333333333336
27 *379:27 *379:28 0.08
28 *379:28 *379:29 554.6666666666667
29 *379:29 *379:30 0.08
30 *379:30 *379:31 0.1
31 *379:31 *379:32 0.1
32 *379:32 *379:33 320.0
33 *379:33 *379:34 0.1
34 *379:34 *379:35 0.1
35 *379:35 *379:36 0.08
36 *379:36 *379:37 128.0
37 *379:37 *379:38 0.08

*END

*D_NET *380 9.998973999999995

*CONN
*I *110:CLK I
*I *100:CLK I
*I *185:CLK I
*I *98:CLK I
*I *142:CLK I
*I *105:CLK I
*I *76:CLK I
*I *77:CLK I
*I *140:CLK I
*I *196:CLK I
*I *109:Y O

*CAP
1 *110:CLK 0.0279235
2 *100:CLK 0.0279235
3 *185:CLK 0.0279235
4 *98:CLK 0.0279235
5 *142:CLK 0.0279235
6 *105:CLK 0.0279235
7 *76:CLK 0.0279235
8 *77:CLK 0.0279235
9 *140:CLK 0.0279235
10 *196:CLK 0.0279235
11 *109:Y 0.0
12 *380:12 0.0009140000000000001
13 *380:13 0.07312
14 *380:14 0.02628
15 *380:15 0.010512
16 *380:16 0.039420000000000004
17 *380:17 0.10512
18 *380:18 0.0009140000000000001
19 *380:19 0.09198
20 *380:20 0.01314
21 *380:21 0.16675199999999998
22 *380:22 0.15768000000000001
23 *380:23 0.01314
24 *380:24 0.13896
25 *380:25 0.15768000000000001
26 *380:26 0.07884000000000001
27 *380:27 0.01314
28 *380:28 0.08337599999999999
29 *380:29 0.23652

*RES
1 *380:1 *380:2 2.666666666666667
2 *380:2 *380:3 213.33333333333334
3 *380:3 *380:4 0.1
4 *380:4 *380:5 106.66666666666667
5 *380:5 *380:6 42.66666666666667
6 *380:6 *380:7 160.0
7 *380:7 *380:8 0.1
8 *380:8 *380:9 0.1
9 *380:9 *380:10 426.6666666666667
10 *380:10 *380:11 0.1
11 *380:11 *380:12 2.666666666666667
12 *380:12 *380:13 0.1
13 *380:13 *380:14 373.33333333333337
14 *380:14 *380:15 0.1
15 *380:15 *380:16 0.1
16 *380:16 *380:17 53.333333333333336
17 *380:17 *380:18 0.08
18 *380:18 *380:19 768.0
19 *380:19 *380:20 0.08
20 *380:20 *380:21 0.1
21 *380:21 *380:22 0.1
22 *380:22 *380:23 640.0
23 *380:23 *380:24 0.1
24 *380:24 *380:25 53.333333333333336
25 *380:25 *380:26 0.08
26 *380:26 *380:27 640.0
27 *380:27 *380:28 0.1
28 *380:28 *380:29 640.0
29 *380:29 *380:30 0.1
30 *380:30 *380:31 320.0
31 *380:31 *380:32 0.1
32 *380:32 *380:33 53.333333333333336
33 *380:33 *380:34 0.08
34 *380:34 *380:35 384.0
35 *380:35 *380:36 0.08
36 *380:36 *380:37 960.0

*END

*D_NET *381 11.663303999999991

*CONN
*I *252:CLK I
*I *254:CLK I
*I *253:CLK I
*I *368:CLK I
*I *369:CLK I
*I *331:CLK I
*I *290:CLK I
*I *370:CLK I
*I *332:CLK I
*I *293:CLK I
*I *285:Y O

*CAP
1 *252:CLK 0.0279235
2 *254:CLK 0.0279235
3 *253:CLK 0.0279235
4 *368:CLK 0.0279235
5 *369:CLK 0.0279235
6 *331:CLK 0.0279235
7 *290:CLK 0.0279235
8 *370:CLK 0.0279235
9 *332:CLK 0.0279235
10 *293:CLK 0.0279235
11 *285:Y 0.0
12 *381:12 0.02628
13 *381:13 0.010512
14 *381:14 0.15768000000000001
15 *381:15 0.055583999999999995
16 *381:16 0.0009140000000000001
17 *381:17 0.07884000000000001
18 *381:18 0.0009140000000000001
19 *381:19 0.11826
20 *381:20 0.006398000000000001
21 *381:21 0.13140000000000002
22 *381:22 0.07884000000000001
23 *381:23 0.0009140000000000001
24 *381:24 0.11826
25 *381:25 0.006398000000000001
26 *381:26 0.13140000000000002
27 *381:27 0.006398000000000001
28 *381:28 0.06570000000000001
29 *381:29 0.11116799999999999

*RES
1 *381:1 *381:2 0.1
2 *381:2 *381:3 106.66666666666667
3 *381:3 *381:4 42.66666666666667
4 *381:4 *381:5 640.0
5 *381:5 *381:6 0.1
6 *381:6 *381:7 0.1
7 *381:7 *381:8 0.08
8 *381:8 *381:9 256.0
9 *381:9 *381:10 0.08
10 *381:10 *381:11 0.1
11 *381:11 *381:12 2.666666666666667
12 *381:12 *381:13 0.1
13 *381:13 *381:14 320.0
14 *381:14 *381:15 0.1
15 *381:15 *381:16 2.666666666666667
16 *381:16 *381:17 0.1
17 *381:17 *381:18 480.0
18 *381:18 *381:19 0.1
19 *381:19 *381:20 18.666666666666668
20 *381:20 *381:21 0.1
21 *381:21 *381:22 533.3333333333334
22 *381:22 *381:23 0.1
23 *381:23 *381:24 320.0
24 *381:24 *381:25 0.1
25 *381:25 *381:26 2.666666666666667
26 *381:26 *381:27 0.1
27 *381:27 *381:28 480.0
28 *381:28 *381:29 0.1
29 *381:29 *381:30 18.666666666666668
30 *381:30 *381:31 0.1
31 *381:31 *381:32 533.3333333333334
32 *381:32 *381:33 0.1
33 *381:33 *381:34 18.666666666666668
34 *381:34 *381:35 0.1
35 *381:35 *381:36 266.6666666666667
36 *381:36 *381:37 0.1
37 *381:37 *381:38 0.1
38 *381:38 *381:39 0.08
39 *381:39 *381:40 512.0
40 *381:40 *381:41 0.08

*END

*D_NET *382 13.192546499999985

*CONN
*I *364:CLK I
*I *279:CLK I
*I *361:CLK I
*I *239:CLK I
*I *316:CLK I
*I *358:CLK I
*I *357:CLK I
*I *278:CLK I
*I *241:CLK I
*I *240:Y O

*CAP
1 *364:CLK 0.0279235
2 *279:CLK 0.0279235
3 *361:CLK 0.0279235
4 *239:CLK 0.0279235
5 *316:CLK 0.0279235
6 *358:CLK 0.0279235
7 *357:CLK 0.0279235
8 *278:CLK 0.0279235
9 *241:CLK 0.0279235
10 *240:Y 0.0
11 *382:11 0.014624000000000002
12 *382:12 0.07884000000000001
13 *382:13 0.15768000000000001
14 *382:14 0.09198
15 *382:15 0.09263999999999999
16 *382:16 0.09198
17 *382:17 0.08337599999999999
18 *382:18 0.02628
19 *382:19 0.12043199999999998
20 *382:20 0.129696
21 *382:21 0.11116799999999999

*RES
1 *382:1 *382:2 42.66666666666667
2 *382:2 *382:3 0.1
3 *382:3 *382:4 320.0
4 *382:4 *382:5 0.1
5 *382:5 *382:6 0.1
6 *382:6 *382:7 640.0
7 *382:7 *382:8 0.1
8 *382:8 *382:9 373.33333333333337
9 *382:9 *382:10 0.1
10 *382:10 *382:11 0.1
11 *382:11 *382:12 0.08
12 *382:12 *382:13 426.6666666666667
13 *382:13 *382:14 0.08
14 *382:14 *382:15 0.1
15 *382:15 *382:16 373.33333333333337
16 *382:16 *382:17 0.1
17 *382:17 *382:18 0.08
18 *382:18 *382:19 384.0
19 *382:19 *382:20 0.08
20 *382:20 *382:21 106.66666666666667
21 *382:21 *382:22 0.1
22 *382:22 *382:23 0.08
23 *382:23 *382:24 554.6666666666667
24 *382:24 *382:25 0.08
25 *382:25 *382:26 0.1
26 *382:26 *382:27 0.08
27 *382:27 *382:28 597.3333333333334
28 *382:28 *382:29 0.1
29 *382:29 *382:30 0.08
30 *382:30 *382:31 512.0

*END

*D_NET *383 14.69027749999998

*CONN
*I *79:CLK I
*I *112:CLK I
*I *201:CLK I
*I *165:CLK I
*I *86:CLK I
*I *203:CLK I
*I *111:CLK I
*I *81:CLK I
*I *116:CLK I
*I *202:Y O

*CAP
1 *79:CLK 0.0279235
2 *112:CLK 0.0279235
3 *201:CLK 0.0279235
4 *165:CLK 0.0279235
5 *86:CLK 0.0279235
6 *203:CLK 0.0279235
7 *111:CLK 0.0279235
8 *81:CLK 0.0279235
9 *116:CLK 0.0279235
10 *202:Y 0.0
11 *383:11 0.06570000000000001
12 *383:12 0.01314
13 *383:13 0.055583999999999995
14 *383:14 0.02628
15 *383:15 0.01314
16 *383:16 0.064848
17 *383:17 0.014624000000000002
18 *383:18 0.15768000000000001
19 *383:19 0.014624000000000002
20 *383:20 0.0009140000000000001
21 *383:21 0.10512
22 *383:22 0.064848
23 *383:23 0.09198
24 *383:24 0.08337599999999999
25 *383:25 0.055583999999999995
26 *383:26 0.0009140000000000001
27 *383:27 0.16675199999999998

*RES
1 *383:1 *383:2 0.1
2 *383:2 *383:3 266.6666666666667
3 *383:3 *383:4 0.1
4 *383:4 *383:5 0.1
5 *383:5 *383:6 53.333333333333336
6 *383:6 *383:7 0.08
7 *383:7 *383:8 256.0
8 *383:8 *383:9 0.08
9 *383:9 *383:10 106.66666666666667
10 *383:10 *383:11 0.1
11 *383:11 *383:12 53.333333333333336
12 *383:12 *383:13 0.08
13 *383:13 *383:14 298.6666666666667
14 *383:14 *383:15 42.66666666666667
15 *383:15 *383:16 0.1
16 *383:16 *383:17 640.0
17 *383:17 *383:18 0.1
18 *383:18 *383:19 42.66666666666667
19 *383:19 *383:20 2.666666666666667
20 *383:20 *383:21 0.1
21 *383:21 *383:22 426.6666666666667
22 *383:22 *383:23 0.1
23 *383:23 *383:24 0.08
24 *383:24 *383:25 298.6666666666667
25 *383:25 *383:26 0.08
26 *383:26 *383:27 0.1
27 *383:27 *383:28 373.33333333333337
28 *383:28 *383:29 0.08
29 *383:29 *383:30 384.0
30 *383:30 *383:31 0.1
31 *383:31 *383:32 0.08
32 *383:32 *383:33 256.0
33 *383:33 *383:34 0.08
34 *383:34 *383:35 0.1
35 *383:35 *383:36 2.666666666666667
36 *383:36 *383:37 0.1
37 *383:37 *383:38 0.08
38 *383:38 *383:39 768.0

*END

*D_NET *384 16.20915449999998

*CONN
*I *67:CLK I
*I *1:CLK I
*I *36:CLK I
*I *33:CLK I
*I *4:CLK I
*I *6:CLK I
*I *65:CLK I
*I *71:CLK I
*I *38:CLK I
*I *69:Y O

*CAP
1 *67:CLK 0.0279235
2 *1:CLK 0.0279235
3 *36:CLK 0.0279235
4 *33:CLK 0.0279235
5 *4:CLK 0.0279235
6 *6:CLK 0.0279235
7 *65:CLK 0.0279235
8 *71:CLK 0.0279235
9 *38:CLK 0.0279235
10 *69:Y 0.0
11 *384:11 0.04631999999999999
12 *384:12 0.014624000000000002
13 *384:13 0.15768000000000001
14 *384:14 0.074112
15 *384:15 0.15768000000000001
16 *384:16 0.06570000000000001
17 *384:17 0.11826
18 *384:18 0.006398000000000001
19 *384:19 0.13896
20 *384:20 0.17082
21 *384:21 0.06570000000000001

*RES
1 *384:1 *384:2 0.1
2 *384:2 *384:3 0.08
3 *384:3 *384:4 213.33333333333334
4 *384:4 *384:5 0.08
5 *384:5 *384:6 0.1
6 *384:6 *384:7 42.66666666666667
7 *384:7 *384:8 0.1
8 *384:8 *384:9 640.0
9 *384:9 *384:10 0.1
10 *384:10 *384:11 0.08
11 *384:11 *384:12 341.33333333333337
12 *384:12 *384:13 0.1
13 *384:13 *384:14 640.0
14 *384:14 *384:15 0.1
15 *384:15 *384:16 266.6666666666667
16 *384:16 *384:17 0.1
17 *384:17 *384:18 0.1
18 *384:18 *384:19 480.0
19 *384:19 *384:20 0.1
20 *384:20 *384:21 18.666666666666668
21 *384:21 *384:22 0.1
22 *384:22 *384:23 0.08
23 *384:23 *384:24 640.0
24 *384:24 *384:25 0.1
25 *384:25 *384:26 693.3333333333334
26 *384:26 *384:27 0.1
27 *384:27 *384:28 266.6666666666667
28 *384:28 *384:29 0.1

*END

*D_NET *385 17.728561499999977

*CONN
*I *12:CLK I
*I *53:CLK I
*I *50:CLK I
*I *43:CLK I
*I *78:CLK I
*I *13:CLK I
*I *47:CLK I
*I *19:CLK I
*I *17:CLK I
*I *80:Y O

*CAP
1 *12:CLK 0.0279235
2 *53:CLK 0.0279235
3 *50:CLK 0.0279235
4 *43:CLK 0.0279235
5 *78:CLK 0.0279235
6 *13:CLK 0.0279235
7 *47:CLK 0.0279235
8 *19:CLK 0.0279235
9 *17:CLK 0.0279235
10 *80:Y 0.0
11 *385:11 0.039420000000000004
12 *385:12 0.04631999999999999
13 *385:13 0.06570000000000001
14 *385:14 0.10512
15 *385:15 0.02628
16 *385:16 0.064848
17 *385:17 0.09198
18 *385:18 0.11116799999999999
19 *385:19 0.01314
20 *385:20 0.09198
21 *385:21 0.14454
22 *385:22 0.11116799999999999
23 *385:23 0.10512

*RES
1 *385:1 *385:2 0.1
2 *385:2 *385:3 160.0
3 *385:3 *385:4 0.08
4 *385:4 *385:5 213.33333333333334
5 *385:5 *385:6 0.08
6 *385:6 *385:7 266.6666666666667
7 *385:7 *385:8 0.1
8 *385:8 *385:9 0.1
9 *385:9 *385:10 426.6666666666667
10 *385:10 *385:11 0.1
11 *385:11 *385:12 106.66666666666667
12 *385:12 *385:13 0.08
13 *385:13 *385:14 298.6666666666667
14 *385:14 *385:15 0.1
15 *385:15 *385:16 373.33333333333337
16 *385:16 *385:17 0.1
17 *385:17 *385:18 0.1
18 *385:18 *385:19 0.08
19 *385:19 *385:20 512.0
20 *385:20 *385:21 0.08
21 *385:21 *385:22 53.333333333333336
22 *385:22 *385:23 0.1
23 *385:23 *385:24 373.33333333333337
24 *385:24 *385:25 0.1
25 *385:25 *385:26 0.1
26 *385:26 *385:27 586.6666666666667
27 *385:27 *385:28 0.08
28 *385:28 *385:29 0.1
29 *385:29 *385:30 0.08
30 *385:30 *385:31 512.0
31 *385:31 *385:32 0.08
32 *385:32 *385:33 0.1
33 *385:33 *385:34 426.6666666666667

*END

*D_NET *386 19.075370999999976

*CONN
*I *172:Y O
*I *286:A I
*I *208:A I
*I *199:A I
*I *277:A I

*CAP
1 *172:Y 0.0
2 *286:A 0.0139855
3 *208:A 0.0139855
4 *199:A 0.0139855
5 *277:A 0.0139855
6 *386:6 0.01314
7 *386:7 0.010512
8 *386:8 0.24966
9 *386:9 0.039420000000000004
10 *386:10 0.361296
11 *386:11 0.014624000000000002
12 *386:12 0.11826
13 *386:13 0.009264
14 *386:14 0.22338000000000002

*RES
1 *386:1 *386:2 0.1
2 *386:2 *386:3 53.333333333333336
3 *386:3 *386:4 42.66666666666667
4 *386:4 *386:5 1013.3333333333334
5 *386:5 *386:6 0.1
6 *386:6 *386:7 0.1
7 *386:7 *386:8 160.0
8 *386:8 *386:9 0.08
9 *386:9 *386:10 1664.0
10 *386:10 *386:11 0.08
11 *386:11 *386:12 42.66666666666667
12 *386:12 *386:13 0.1
13 *386:13 *386:14 480.0
14 *386:14 *386:15 0.08
15 *386:15 *386:16 42.66666666666667
16 *386:16 *386:17 0.1
17 *386:17 *386:18 906.6666666666667

*END

*D_NET *387 19.786076399999974

*CONN
*I *276:A I
*I *271:B I
*I *309:B I
*I *270:A I
*I *313:B I
*I *277:Y O

*CAP
1 *276:A 0.017346
2 *271:B 0.0182038
3 *309:B 0.0182038
4 *270:A 0.017346
5 *313:B 0.0182038
6 *277:Y 0.0
7 *387:7 0.01314
8 *387:8 0.037056
9 *387:9 0.01314
10 *387:10 0.014624000000000002
11 *387:11 0.14454
12 *387:12 0.027791999999999997
13 *387:13 0.101904
14 *387:14 0.14454
15 *387:15 0.01314
16 *387:16 0.055583999999999995

*RES
1 *387:1 *387:2 0.1
2 *387:2 *387:3 53.333333333333336
3 *387:3 *387:4 0.08
4 *387:4 *387:5 170.66666666666669
5 *387:5 *387:6 0.08
6 *387:6 *387:7 53.333333333333336
7 *387:7 *387:8 0.1
8 *387:8 *387:9 42.66666666666667
9 *387:9 *387:10 0.1
10 *387:10 *387:11 586.6666666666667
11 *387:11 *387:12 0.08
12 *387:12 *387:13 128.0
13 *387:13 *387:14 0.1
14 *387:14 *387:15 0.08
15 *387:15 *387:16 469.33333333333337
16 *387:16 *387:17 0.1
17 *387:17 *387:18 586.6666666666667
18 *387:18 *387:19 0.1
19 *387:19 *387:20 53.333333333333336
20 *387:20 *387:21 0.08
21 *387:21 *387:22 256.0

*END

*D_NET *388 20.508421399999964

*CONN
*I *193:A I
*I *157:B I
*I *152:B I
*I *151:A I
*I *195:A I
*I *199:Y O

*CAP
1 *193:A 0.017346
2 *157:B 0.0182038
3 *152:B 0.0182038
4 *151:A 0.017346
5 *195:A 0.017346
6 *199:Y 0.0
7 *388:7 0.01314
8 *388:8 0.064848
9 *388:9 0.06570000000000001
10 *388:10 0.01314
11 *388:11 0.148224
12 *388:12 0.09198
13 *388:13 0.055583999999999995
14 *388:14 0.09198

*RES
1 *388:1 *388:2 0.1
2 *388:2 *388:3 53.333333333333336
3 *388:3 *388:4 0.08
4 *388:4 *388:5 298.6666666666667
5 *388:5 *388:6 0.08
6 *388:6 *388:7 266.6666666666667
7 *388:7 *388:8 0.1
8 *388:8 *388:9 0.1
9 *388:9 *388:10 53.333333333333336
10 *388:10 *388:11 0.08
11 *388:11 *388:12 682.6666666666667
12 *388:12 *388:13 0.1
13 *388:13 *388:14 373.33333333333337
14 *388:14 *388:15 0.1
15 *388:15 *388:16 0.08
16 *388:16 *388:17 256.0
17 *388:17 *388:18 0.1
18 *388:18 *388:19 373.33333333333337
19 *388:19 *388:20 0.08

*END

*D_NET *389 21.217479299999958

*CONN
*I *117:C I
*I *251:A I
*I *171:B I
*I *250:B I
*I *208:Y O

*CAP
1 *117:C 0.0129138
2 *251:A 0.017346
3 *171:B 0.0159247
4 *250:B 0.0182038
5 *208:Y 0.0
6 *389:6 0.09198
7 *389:7 0.027791999999999997
8 *389:8 0.01314
9 *389:9 0.05256
10 *389:10 0.04631999999999999
11 *389:11 0.02628
12 *389:12 0.039420000000000004
13 *389:13 0.16675199999999998
14 *389:14 0.09198

*RES
1 *389:1 *389:2 0.1
2 *389:2 *389:3 373.33333333333337
3 *389:3 *389:4 0.1
4 *389:4 *389:5 0.1
5 *389:5 *389:6 0.08
6 *389:6 *389:7 128.0
7 *389:7 *389:8 0.08
8 *389:8 *389:9 53.333333333333336
9 *389:9 *389:10 0.1
10 *389:10 *389:11 213.33333333333334
11 *389:11 *389:12 0.08
12 *389:12 *389:13 213.33333333333334
13 *389:13 *389:14 0.08
14 *389:14 *389:15 106.66666666666667
15 *389:15 *389:16 0.1
16 *389:16 *389:17 0.1
17 *389:17 *389:18 160.0
18 *389:18 *389:19 0.08
19 *389:19 *389:20 768.0
20 *389:20 *389:21 0.08