*SPEF "IEEE 1481-1998" 
*DESIGN "rle_enc"
*DATE "Mon Dec 16 23:35:39 2019"
*VENDOR "ISPD 2013 Contest"
*PROGRAM "Benchmark Parasitic Generator"
*VERSION "0.0"
*DESIGN_FLOW "NETLIST_TYPE_VERILOG"
*DIVIDER /
*DELIMITER :
*BUS_DELIMITER []
*T_UNIT 1 PS
*C_UNIT 1 FF
*R_UNIT 1 KOHM
*L_UNIT 1 UH

*NAME_MAP

*1 DFFPOSX1_45
*2 NAND2X1_17
*3 NAND3X1_12
*4 NAND2X1_16
*5 NAND2X1_20
*6 NAND2X1_15
*7 NAND2X1_22
*8 NAND2X1_14
*9 NAND3X1_11
*10 NAND2X1_13
*11 DFFPOSX1_44
*12 FILL_0_0_0
*13 FILL_0_0_1
*14 FILL_0_0_2
*15 NAND2X1_5
*16 NAND2X1_8
*17 NAND2X1_9
*18 NAND2X1_10
*19 NAND3X1_10
*20 NAND2X1_11
*21 DFFPOSX1_43
*22 BUFX2_18
*23 BUFX2_22
*24 DFFPOSX1_29
*25 DFFPOSX1_31
*26 BUFX2_20
*27 BUFX2_19
*28 FILL_0_1_0
*29 FILL_0_1_1
*30 FILL_0_1_2
*31 NAND2X1_45
*32 INVX1_8
*33 DFFPOSX1_30
*34 DFFPOSX1_28
*35 DFFPOSX1_27
*36 BUFX2_16
*37 INVX2_2
*38 BUFX2_14
*39 FILL_1_1
*40 DFFPOSX1_46
*41 NAND2X1_18
*42 NAND2X1_19
*43 NAND3X1_13
*44 NAND2X1_21
*45 INVX1_22
*46 OAI21X1_12
*47 DFFPOSX1_47
*48 NAND2X1_12
*49 NAND2X1_6
*50 FILL_1_0_0
*51 FILL_1_0_1
*52 FILL_1_0_2
*53 NAND3X1_8
*54 NAND2X1_7
*55 NAND3X1_9
*56 DFFPOSX1_42
*57 DFFPOSX1_33
*58 INVX1_10
*59 NAND2X1_43
*60 AOI22X1_10
*61 OAI21X1_38
*62 INVX1_34
*63 NAND2X1_46
*64 AOI22X1_12
*65 INVX1_7
*66 NAND3X1_30
*67 OAI21X1_39
*68 FILL_1_1_0
*69 FILL_1_1_1
*70 FILL_1_1_2
*71 NAND3X1_3
*72 INVX1_35
*73 AOI22X1_11
*74 NAND2X1_44
*75 OAI21X1_37
*76 NAND2X1_41
*77 AOI22X1_9
*78 NAND2X1_42
*79 INVX1_6
*80 AOI22X1_8
*81 NAND2X1_40
*82 INVX1_13
*83 NAND3X1_26
*84 BUFX2_17
*85 BUFX2_13
*86 FILL_2_1
*87 DFFPOSX1_36
*88 DFFPOSX1_37
*89 NAND3X1_7
*90 OAI21X1_6
*91 NOR2X1_9
*92 AND2X2_2
*93 INVX1_21
*94 BUFX4_9
*95 AOI22X1_1
*96 FILL_2_0_0
*97 FILL_2_0_1
*98 FILL_2_0_2
*99 NAND2X1_4
*100 DFFPOSX1_41
*101 AOI21X1_3
*102 DFFPOSX1_8
*103 BUFX2_23
*104 NOR2X1_31
*105 BUFX4_6
*106 DFFPOSX1_32
*107 BUFX2_21
*108 OAI21X1_40
*109 BUFX4_1
*110 NOR2X1_29
*111 INVX1_33
*112 FILL_2_1_0
*113 FILL_2_1_1
*114 FILL_2_1_2
*115 NAND3X1_27
*116 NAND3X1_29
*117 NAND3X1_28
*118 NAND2X1_39
*119 NAND2X1_38
*120 NAND3X1_25
*121 NAND3X1_24
*122 NAND2X1_35
*123 AOI22X1_6
*124 INVX1_32
*125 DFFPOSX1_25
*126 INVX1_30
*127 FILL_3_1
*128 NOR2X1_16
*129 AOI21X1_6
*130 OAI21X1_7
*131 MUX2X1_1
*132 NAND2X1_2
*133 INVX1_17
*134 NOR2X1_15
*135 AND2X2_3
*136 OAI21X1_8
*137 OAI21X1_9
*138 INVX1_18
*139 DFFPOSX1_38
*140 FILL_3_0_0
*141 FILL_3_0_1
*142 FILL_3_0_2
*143 OAI21X1_11
*144 NOR2X1_34
*145 INVX2_1
*146 BUFX4_5
*147 AOI21X1_2
*148 INVX1_2
*149 DFFPOSX1_34
*150 INVX1_37
*151 OAI21X1_42
*152 AOI21X1_14
*153 NOR2X1_4
*154 BUFX4_2
*155 AND2X2_5
*156 OAI22X1_2
*157 OAI21X1_41
*158 NAND3X1_4
*159 INVX1_9
*160 FILL_3_1_0
*161 FILL_3_1_1
*162 FILL_3_1_2
*163 NOR2X1_5
*164 BUFX4_4
*165 NAND2X1_37
*166 AOI22X1_7
*167 OAI21X1_36
*168 INVX2_3
*169 NOR2X1_28
*170 NAND3X1_6
*171 NOR2X1_7
*172 NAND3X1_23
*173 OAI21X1_35
*174 DFFPOSX1_24
*175 FILL_4_1
*176 DFFPOSX1_35
*177 NOR2X1_14
*178 NOR2X1_13
*179 AOI21X1_5
*180 NOR2X1_10
*181 OAI21X1_10
*182 DFFPOSX1_3
*183 DFFPOSX1_40
*184 FILL_4_0_0
*185 FILL_4_0_1
*186 FILL_4_0_2
*187 INVX1_19
*188 NAND2X1_23
*189 DFFPOSX1_48
*190 AOI22X1_2
*191 NOR2X1_19
*192 NOR2X1_18
*193 NAND2X1_26
*194 AOI22X1_13
*195 OR2X2_5
*196 NAND2X1_47
*197 INVX4_1
*198 BUFX4_8
*199 NAND3X1_32
*200 INVX1_36
*201 BUFX4_3
*202 NOR3X1_1
*203 FILL_4_1_0
*204 FILL_4_1_1
*205 FILL_4_1_2
*206 NOR2X1_30
*207 NAND3X1_31
*208 AND2X2_1
*209 DFFPOSX1_26
*210 NOR2X1_8
*211 NOR2X1_26
*212 INVX1_11
*213 NAND3X1_22
*214 INVX1_31
*215 OAI21X1_34
*216 NOR2X1_27
*217 NAND2X1_36
*218 FILL_5_1
*219 FILL_5_2
*220 DFFPOSX1_2
*221 INVX1_16
*222 AND2X2_6
*223 AOI21X1_4
*224 NOR2X1_11
*225 INVX2_4
*226 NAND2X1_3
*227 NOR2X1_17
*228 INVX1_20
*229 OAI21X1_2
*230 INVX2_5
*231 BUFX4_7
*232 OAI21X1_14
*233 FILL_5_0_0
*234 FILL_5_0_1
*235 FILL_5_0_2
*236 OAI21X1_15
*237 AOI21X1_7
*238 OAI21X1_13
*239 INVX1_1
*240 OAI21X1_1
*241 DFFPOSX1_1
*242 NAND2X1_27
*243 INVX1_27
*244 OAI22X1_1
*245 AOI21X1_10
*246 DFFPOSX1_16
*247 BUFX4_10
*248 INVX4_2
*249 DFFPOSX1_21
*250 FILL_5_1_0
*251 FILL_5_1_1
*252 FILL_5_1_2
*253 AOI22X1_5
*254 AOI21X1_12
*255 NAND3X1_20
*256 NOR2X1_6
*257 NAND3X1_5
*258 NAND3X1_21
*259 OAI21X1_33
*260 DFFPOSX1_23
*261 NAND2X1_34
*262 BUFX2_15
*263 BUFX2_25
*264 DFFPOSX1_10
*265 OAI21X1_16
*266 NAND2X1_24
*267 NAND2X1_1
*268 INVX2_6
*269 INVX1_14
*270 OAI21X1_3
*271 DFFPOSX1_6
*272 FILL_6_0_0
*273 FILL_6_0_1
*274 FILL_6_0_2
*275 DFFPOSX1_39
*276 BUFX2_24
*277 OR2X2_2
*278 AOI21X1_8
*279 AOI21X1_1
*280 INVX1_23
*281 DFFPOSX1_15
*282 NOR2X1_22
*283 INVX1_26
*284 OAI21X1_22
*285 OR2X2_3
*286 NOR2X1_20
*287 NAND3X1_16
*288 NOR2X1_23
*289 AND2X2_4
*290 NAND2X1_29
*291 NAND3X1_19
*292 FILL_6_1_0
*293 FILL_6_1_1
*294 FILL_6_1_2
*295 NAND2X1_33
*296 OR2X2_4
*297 NOR2X1_25
*298 AOI21X1_13
*299 OAI21X1_29
*300 OAI21X1_32
*301 OAI21X1_30
*302 OAI21X1_31
*303 INVX1_29
*304 DFFPOSX1_22
*305 BUFX2_12
*306 BUFX2_11
*307 DFFPOSX1_4
*308 INVX1_38
*309 NOR2X1_33
*310 OR2X2_1
*311 OAI21X1_4
*312 OAI21X1_5
*313 INVX1_15
*314 DFFPOSX1_7
*315 AND2X2_7
*316 FILL_7_0_0
*317 FILL_7_0_1
*318 FILL_7_0_2
*319 DFFPOSX1_9
*320 AOI21X1_9
*321 OAI21X1_18
*322 OAI21X1_19
*323 INVX1_25
*324 OAI21X1_20
*325 NAND3X1_15
*326 INVX1_24
*327 NAND3X1_14
*328 NOR2X1_3
*329 NAND2X1_28
*330 AOI22X1_3
*331 NOR2X1_21
*332 DFFPOSX1_12
*333 NOR2X1_2
*334 NAND3X1_2
*335 FILL_7_1_0
*336 FILL_7_1_1
*337 FILL_7_1_2
*338 OAI21X1_25
*339 OAI21X1_23
*340 AOI21X1_11
*341 NAND3X1_18
*342 NAND3X1_17
*343 NAND2X1_32
*344 INVX1_12
*345 OAI21X1_28
*346 NOR2X1_24
*347 OAI21X1_27
*348 AOI22X1_4
*349 NAND2X1_30
*350 NAND2X1_31
*351 BUFX2_6
*352 BUFX2_26
*353 DFFPOSX1_11
*354 NAND2X1_25
*355 OAI21X1_17
*356 NOR2X1_12
*357 NAND2X1_48
*358 NOR2X1_32
*359 DFFPOSX1_5
*360 FILL_8_0_0
*361 FILL_8_0_1
*362 FILL_8_0_2
*363 DFFPOSX1_13
*364 DFFPOSX1_14
*365 OAI21X1_21
*366 BUFX2_1
*367 INVX1_4
*368 BUFX2_3
*369 NOR2X1_1
*370 BUFX2_2
*371 NAND3X1_1
*372 INVX1_3
*373 BUFX2_4
*374 BUFX2_5
*375 DFFPOSX1_17
*376 BUFX2_10
*377 OAI21X1_24
*378 INVX1_28
*379 INVX1_5
*380 FILL_8_1_0
*381 FILL_8_1_1
*382 FILL_8_1_2
*383 OAI21X1_26
*384 DFFPOSX1_18
*385 BUFX2_7
*386 BUFX2_9
*387 DFFPOSX1_20
*388 DFFPOSX1_19
*389 BUFX2_8
*390 FILL_9_1
*391 state<7>
*392 state_7_bF$buf3
*393 state_7_bF$buf2
*394 state_7_bF$buf1
*395 state_7_bF$buf0
*396 clk
*397 clk_bF$buf5
*398 clk_bF$buf4
*399 clk_bF$buf3
*400 clk_bF$buf2
*401 clk_bF$buf1
*402 clk_bF$buf0
*403 rst
*404 _7_
*405 state<8>
*406 _8_
*407 end_of_stream
*408 _9_
*409 _206_<0>
*410 state<5>
*411 _10_
*412 recv_ready
*413 _11_
*414 _207_<3>
*415 _12_
*416 _207_<2>
*417 _13_
*418 _207_<1>
*419 _207_<0>
*420 _14_
*421 _15_
*422 _207_<7>
*423 _16_
*424 _207_<6>
*425 _17_
*426 _207_<5>
*427 _207_<4>
*428 _18_
*429 _19_
*430 _20_
*431 _207_<16>
*432 _21_
*433 _207_<19>
*434 _22_
*435 _207_<18>
*436 _23_
*437 _24_
*438 _207_<20>
*439 _25_
*440 _207_<17>
*441 _26_
*442 _207_<22>
*443 _207_<21>
*444 _27_
*445 _28_
*446 _29_
*447 _207_<9>
*448 _30_
*449 _207_<8>
*450 _31_
*451 _207_<11>
*452 _207_<10>
*453 _32_
*454 _33_
*455 _207_<15>
*456 _34_
*457 _207_<14>
*458 _35_
*459 _207_<13>
*460 _207_<12>
*461 _36_
*462 _37_
*463 _38_
*464 _39_
*465 _40_
*466 shift_count<1>
*467 shift_count<0>
*468 shift_count<2>
*469 _41_
*470 shift_count<3>
*471 _42_
*472 state<2>
*473 _43_
*474 new_bitstream
*475 _44_
*476 _45_
*477 state<0>
*478 _46_
*479 _206_<5>
*480 _47_
*481 _48_
*482 _49_
*483 state<6>
*484 _50_
*485 send_ready
*486 _51_
*487 _52_
*488 _206_<6>
*489 _53_
*490 state<1>
*491 _54_
*492 _206_<7>
*493 _55_
*494 _56_
*495 _57_
*496 _4_<0>
*497 _58_
*498 _59_
*499 _60_
*500 _61_
*501 _62_
*502 _63_
*503 _64_
*504 _4_<1>
*505 _4_<2>
*506 _65_
*507 _66_
*508 _67_
*509 _4_<3>
*510 shift_buf<0>
*511 _68_
*512 _69_
*513 _70_
*514 _71_
*515 _72_
*516 _73_
*517 in_data<0>
*518 shift_buf<1>
*519 _74_
*520 _3_<0>
*521 _75_
*522 in_data<1>
*523 _76_
*524 shift_buf<2>
*525 _77_
*526 _3_<1>
*527 _78_
*528 in_data<2>
*529 _79_
*530 shift_buf<3>
*531 _80_
*532 _3_<2>
*533 _81_
*534 in_data<3>
*535 _82_
*536 shift_buf<4>
*537 _83_
*538 _3_<3>
*539 _84_
*540 in_data<4>
*541 _85_
*542 shift_buf<5>
*543 _86_
*544 _3_<4>
*545 _87_
*546 in_data<5>
*547 _88_
*548 shift_buf<6>
*549 _89_
*550 _3_<5>
*551 _90_
*552 in_data<6>
*553 _91_
*554 shift_buf<7>
*555 _92_
*556 _3_<6>
*557 _93_
*558 in_data<7>
*559 _94_
*560 _3_<7>
*561 value_type
*562 _95_
*563 _96_
*564 _97_
*565 _98_
*566 _99_
*567 _1_
*568 _100_
*569 _101_
*570 _5_
*571 _208_
*572 _102_
*573 state<3>
*574 _2_
*575 _209_
*576 _103_
*577 state<4>
*578 _6_
*579 _104_
*580 _105_
*581 _106_
*582 _107_
*583 _108_
*584 _109_
*585 _110_
*586 _111_
*587 _0_<0>
*588 _112_
*589 _113_
*590 _114_
*591 _0_<1>
*592 _115_
*593 _116_
*594 _117_
*595 _0_<2>
*596 _118_
*597 _119_
*598 _120_
*599 _121_
*600 _0_<3>
*601 _122_
*602 _123_
*603 _0_<4>
*604 _124_
*605 _125_
*606 _126_
*607 _127_
*608 _128_
*609 _129_
*610 _130_
*611 _0_<5>
*612 _131_
*613 _132_
*614 _133_
*615 _134_
*616 _0_<6>
*617 _135_
*618 _136_
*619 _0_<7>
*620 _137_
*621 _138_
*622 _139_
*623 _140_
*624 _141_
*625 _142_
*626 _0_<8>
*627 _143_
*628 _144_
*629 _145_
*630 _0_<9>
*631 _146_
*632 _147_
*633 _148_
*634 _149_
*635 _0_<10>
*636 _150_
*637 _151_
*638 _0_<11>
*639 _152_
*640 _153_
*641 _154_
*642 _155_
*643 _156_
*644 _157_
*645 _0_<12>
*646 _158_
*647 _159_
*648 _160_
*649 _161_
*650 _162_
*651 _163_
*652 _164_
*653 _0_<13>
*654 _165_
*655 _166_
*656 _0_<14>
*657 _167_
*658 _168_
*659 _169_
*660 _170_
*661 _171_
*662 _0_<15>
*663 _172_
*664 _173_
*665 _174_
*666 _0_<16>
*667 _175_
*668 _176_
*669 _177_
*670 _178_
*671 _179_
*672 _180_
*673 _0_<17>
*674 _181_
*675 _182_
*676 _183_
*677 _184_
*678 _0_<18>
*679 _185_
*680 _186_
*681 _187_
*682 _188_
*683 _189_
*684 _0_<19>
*685 _190_
*686 _191_
*687 _192_
*688 _193_
*689 _0_<20>
*690 _194_
*691 _195_
*692 _196_
*693 _197_
*694 _198_
*695 _0_<21>
*696 _199_
*697 _200_
*698 _201_
*699 _0_<22>
*700 _204_
*701 _202_
*702 _205_
*703 _203_
*704 _206_<3>
*705 _206_<2>
*706 _206_<8>
*707 out_data<0>
*708 out_data<1>
*709 out_data<2>
*710 out_data<3>
*711 out_data<4>
*712 out_data<5>
*713 out_data<6>
*714 out_data<7>
*715 out_data<8>
*716 out_data<9>
*717 out_data<10>
*718 out_data<11>
*719 out_data<12>
*720 out_data<13>
*721 out_data<14>
*722 out_data<15>
*723 out_data<16>
*724 out_data<17>
*725 out_data<18>
*726 out_data<19>
*727 out_data<20>
*728 out_data<21>
*729 out_data<22>
*730 out_data<23>
*731 rd_req
*732 wr_req

*D_NET *391 0.911802

*CONN
*I *102:Q O
*I *164:A I
*I *201:A I
*I *154:A I
*I *109:A I

*CAP
1 *102:Q 0.0
2 *164:A 0.0139855
3 *201:A 0.0139855
4 *154:A 0.0139855
5 *109:A 0.0139855
6 *391:6 0.11826
7 *391:7 0.101904
8 *391:8 0.014624000000000002
9 *391:9 0.039420000000000004
10 *391:10 0.16675199999999998
11 *391:11 0.26280000000000003
12 *391:12 0.027791999999999997
13 *391:13 0.01314
14 *391:14 0.11116799999999999

*RES
1 *391:1 *391:2 0.1
2 *391:2 *391:3 480.0
3 *391:3 *391:4 0.08
4 *391:4 *391:5 469.33333333333337
5 *391:5 *391:6 0.08
6 *391:6 *391:7 0.1
7 *391:7 *391:8 42.66666666666667
8 *391:8 *391:9 0.1
9 *391:9 *391:10 160.0
10 *391:10 *391:11 0.08
11 *391:11 *391:12 768.0
12 *391:12 *391:13 0.1
13 *391:13 *391:14 1066.6666666666667
14 *391:14 *391:15 0.08
15 *391:15 *391:16 128.0
16 *391:16 *391:17 0.1
17 *391:17 *391:18 53.333333333333336
18 *391:18 *391:19 0.08
19 *391:19 *391:20 512.0
20 *391:20 *391:21 0.08

*END

*D_NET *392 1.8647152

*CONN
*I *76:A I
*I *119:A I
*I *67:C I
*I *75:C I
*I *61:C I
*I *108:C I
*I *109:Y O

*CAP
1 *76:A 0.0125
2 *119:A 0.0125
3 *67:C 0.0129138
4 *75:C 0.0129138
5 *61:C 0.0129138
6 *108:C 0.0129138
7 *109:Y 0.0
8 *392:8 0.055583999999999995
9 *392:9 0.018528
10 *392:10 0.11826
11 *392:11 0.11826
12 *392:12 0.08337599999999999
13 *392:13 0.07884000000000001
14 *392:14 0.2316
15 *392:15 0.06570000000000001
16 *392:16 0.009264
17 *392:17 0.02628
18 *392:18 0.014624000000000002

*RES
1 *392:1 *392:2 0.1
2 *392:2 *392:3 0.08
3 *392:3 *392:4 256.0
4 *392:4 *392:5 0.08
5 *392:5 *392:6 0.1
6 *392:6 *392:7 0.1
7 *392:7 *392:8 0.08
8 *392:8 *392:9 85.33333333333334
9 *392:9 *392:10 0.08
10 *392:10 *392:11 480.0
11 *392:11 *392:12 0.1
12 *392:12 *392:13 480.0
13 *392:13 *392:14 0.08
14 *392:14 *392:15 384.0
15 *392:15 *392:16 0.1
16 *392:16 *392:17 320.0
17 *392:17 *392:18 0.08
18 *392:18 *392:19 1066.6666666666667
19 *392:19 *392:20 0.08
20 *392:20 *392:21 0.1
21 *392:21 *392:22 266.6666666666667
22 *392:22 *392:23 0.08
23 *392:23 *392:24 42.66666666666667
24 *392:24 *392:25 0.1
25 *392:25 *392:26 106.66666666666667
26 *392:26 *392:27 0.1
27 *392:27 *392:28 42.66666666666667

*END

*D_NET *393 2.7860626999999996

*CONN
*I *152:B I
*I *188:B I
*I *197:A I
*I *194:C I
*I *192:B I
*I *196:A I
*I *154:Y O

*CAP
1 *152:B 0.0179733
2 *188:B 0.0129035
3 *197:A 0.0373134
4 *194:C 0.0182378
5 *192:B 0.0150643
6 *196:A 0.0125
7 *154:Y 0.0
8 *393:8 0.10512
9 *393:9 0.014624000000000002
10 *393:10 0.01314
11 *393:11 0.074112
12 *393:12 0.17082
13 *393:13 0.02628
14 *393:14 0.074112
15 *393:15 0.02628
16 *393:16 0.01314
17 *393:17 0.21307199999999998

*RES
1 *393:1 *393:2 0.1
2 *393:2 *393:3 426.6666666666667
3 *393:3 *393:4 0.1
4 *393:4 *393:5 42.66666666666667
5 *393:5 *393:6 0.1
6 *393:6 *393:7 53.333333333333336
7 *393:7 *393:8 0.08
8 *393:8 *393:9 341.33333333333337
9 *393:9 *393:10 0.08
10 *393:10 *393:11 0.1
11 *393:11 *393:12 693.3333333333334
12 *393:12 *393:13 0.08
13 *393:13 *393:14 0.1
14 *393:14 *393:15 106.66666666666667
15 *393:15 *393:16 0.08
16 *393:16 *393:17 341.33333333333337
17 *393:17 *393:18 0.08
18 *393:18 *393:19 106.66666666666667
19 *393:19 *393:20 0.1
20 *393:20 *393:21 53.333333333333336
21 *393:21 *393:22 0.08
22 *393:22 *393:23 981.3333333333335

*END

*D_NET *394 4.5369902999999985

*CONN
*I *330:C I
*I *325:A I
*I *341:A I
*I *347:C I
*I *245:B I
*I *242:A I
*I *201:Y O

*CAP
1 *330:C 0.0182378
2 *325:A 0.0158812
3 *341:A 0.0158812
4 *347:C 0.0129138
5 *245:B 0.0179733
6 *242:A 0.0125
7 *201:Y 0.0
8 *394:8 0.039420000000000004
9 *394:9 0.176016
10 *394:10 0.02628
11 *394:11 0.039420000000000004
12 *394:12 0.11116799999999999
13 *394:13 0.06570000000000001
14 *394:14 0.010512
15 *394:15 0.22338000000000002
16 *394:16 0.014624000000000002
17 *394:17 0.08337599999999999
18 *394:18 0.03472
19 *394:19 0.027791999999999997
20 *394:20 0.05256
21 *394:21 0.16675199999999998
22 *394:22 0.18228
23 *394:23 0.064848
24 *394:24 0.039420000000000004
25 *394:25 0.18527999999999997

*RES
1 *394:1 *394:2 0.1
2 *394:2 *394:3 160.0
3 *394:3 *394:4 0.08
4 *394:4 *394:5 810.6666666666667
5 *394:5 *394:6 0.08
6 *394:6 *394:7 106.66666666666667
7 *394:7 *394:8 0.1
8 *394:8 *394:9 0.1
9 *394:9 *394:10 160.0
10 *394:10 *394:11 0.08
11 *394:11 *394:12 512.0
12 *394:12 *394:13 0.1
13 *394:13 *394:14 266.6666666666667
14 *394:14 *394:15 42.66666666666667
15 *394:15 *394:16 906.6666666666667
16 *394:16 *394:17 42.66666666666667
17 *394:17 *394:18 0.1
18 *394:18 *394:19 0.08
19 *394:19 *394:20 384.0
20 *394:20 *394:21 0.06
21 *394:21 *394:22 186.66666666666669
22 *394:22 *394:23 0.06
23 *394:23 *394:24 128.0
24 *394:24 *394:25 0.08
25 *394:25 *394:26 0.1
26 *394:26 *394:27 213.33333333333334
27 *394:27 *394:28 0.08
28 *394:28 *394:29 768.0
29 *394:29 *394:30 0.06
30 *394:30 *394:31 980.0
31 *394:31 *394:32 0.06
32 *394:32 *394:33 298.6666666666667
33 *394:33 *394:34 0.1
34 *394:34 *394:35 160.0
35 *394:35 *394:36 0.08
36 *394:36 *394:37 853.3333333333334
37 *394:37 *394:38 0.08

*END

*D_NET *395 5.445332299999998

*CONN
*I *255:A I
*I *253:C I
*I *172:A I
*I *167:C I
*I *258:B I
*I *164:Y O

*CAP
1 *255:A 0.0158812
2 *253:C 0.0182378
3 *172:A 0.0158812
4 *167:C 0.0129138
5 *258:B 0.0159247
6 *164:Y 0.0
7 *395:7 0.09263999999999999
8 *395:8 0.26280000000000003
9 *395:9 0.01314
10 *395:10 0.04631999999999999
11 *395:11 0.01314
12 *395:12 0.12043199999999998
13 *395:13 0.039420000000000004
14 *395:14 0.148224

*RES
1 *395:1 *395:2 0.1
2 *395:2 *395:3 0.08
3 *395:3 *395:4 426.6666666666667
4 *395:4 *395:5 0.08
5 *395:5 *395:6 0.1
6 *395:6 *395:7 0.1
7 *395:7 *395:8 1066.6666666666667
8 *395:8 *395:9 0.1
9 *395:9 *395:10 53.333333333333336
10 *395:10 *395:11 0.08
11 *395:11 *395:12 213.33333333333334
12 *395:12 *395:13 0.08
13 *395:13 *395:14 0.1
14 *395:14 *395:15 53.333333333333336
15 *395:15 *395:16 0.08
16 *395:16 *395:17 554.6666666666667
17 *395:17 *395:18 0.08
18 *395:18 *395:19 0.1
19 *395:19 *395:20 160.0
20 *395:20 *395:21 0.08
21 *395:21 *395:22 682.6666666666667
22 *395:22 *395:23 0.08

*END

*D_NET *396 7.319953299999999

*CONN
*P *396 I
*I *247:A I
*I *94:A I
*I *198:A I
*I *231:A I
*I *105:A I
*I *146:A I

*CAP
1 *247:A 0.0139855
2 *94:A 0.0139855
3 *198:A 0.0139855
4 *231:A 0.0139855
5 *105:A 0.0139855
6 *146:A 0.0139855
7 *396:7 0.05256
8 *396:8 0.176016
9 *396:9 0.06570000000000001
10 *396:10 0.3285
11 *396:11 0.05256
12 *396:12 0.25012799999999996
13 *396:13 0.0262143
14 *396:14 0.25172
15 *396:15 0.01314
16 *396:16 0.064848
17 *396:17 0.1971
18 *396:18 0.074112
19 *396:19 0.13140000000000002
20 *396:20 0.027791999999999997

*RES
1 *396:1 *396:2 0.1
2 *396:2 *396:3 213.33333333333334
3 *396:3 *396:4 0.08
4 *396:4 *396:5 810.6666666666667
5 *396:5 *396:6 0.08
6 *396:6 *396:7 266.6666666666667
7 *396:7 *396:8 0.1
8 *396:8 *396:9 0.1
9 *396:9 *396:10 1333.3333333333335
10 *396:10 *396:11 0.1
11 *396:11 *396:12 213.33333333333334
12 *396:12 *396:13 0.08
13 *396:13 *396:14 1152.0000000000002
14 *396:14 *396:15 106.4
15 *396:15 *396:16 0.08
16 *396:16 *396:17 0.06
17 *396:17 *396:18 1353.3333333333335
18 *396:18 *396:19 0.06
19 *396:19 *396:20 0.1
20 *396:20 *396:21 53.333333333333336
21 *396:21 *396:22 0.08
22 *396:22 *396:23 298.6666666666667
23 *396:23 *396:24 0.08
24 *396:24 *396:25 800.0
25 *396:25 *396:26 0.08
26 *396:26 *396:27 341.33333333333337
27 *396:27 *396:28 0.1
28 *396:28 *396:29 533.3333333333334
29 *396:29 *396:30 0.08
30 *396:30 *396:31 128.0

*END

*D_NET *397 8.5789703

*CONN
*I *11:CLK I
*I *56:CLK I
*I *47:CLK I
*I *102:CLK I
*I *21:CLK I
*I *100:CLK I
*I *149:CLK I
*I *57:CLK I
*I *146:Y O

*CAP
1 *11:CLK 0.0279235
2 *56:CLK 0.0279235
3 *47:CLK 0.0279235
4 *102:CLK 0.0279235
5 *21:CLK 0.0279235
6 *100:CLK 0.0279235
7 *149:CLK 0.0279235
8 *57:CLK 0.0279235
9 *146:Y 0.0
10 *397:10 0.09198
11 *397:11 0.014624000000000002
12 *397:12 0.074112
13 *397:13 0.07884000000000001
14 *397:14 0.17082
15 *397:15 0.06570000000000001
16 *397:16 0.04631999999999999
17 *397:17 0.02628
18 *397:18 0.203808
19 *397:19 0.05256
20 *397:20 0.074112
21 *397:21 0.05256

*RES
1 *397:1 *397:2 0.1
2 *397:2 *397:3 373.33333333333337
3 *397:3 *397:4 0.1
4 *397:4 *397:5 42.66666666666667
5 *397:5 *397:6 0.1
6 *397:6 *397:7 0.08
7 *397:7 *397:8 341.33333333333337
8 *397:8 *397:9 0.08
9 *397:9 *397:10 0.1
10 *397:10 *397:11 320.0
11 *397:11 *397:12 0.1
12 *397:12 *397:13 0.1
13 *397:13 *397:14 693.3333333333334
14 *397:14 *397:15 0.1
15 *397:15 *397:16 266.6666666666667
16 *397:16 *397:17 0.1
17 *397:17 *397:18 0.1
18 *397:18 *397:19 0.08
19 *397:19 *397:20 213.33333333333334
20 *397:20 *397:21 0.08
21 *397:21 *397:22 0.1
22 *397:22 *397:23 106.66666666666667
23 *397:23 *397:24 0.08
24 *397:24 *397:25 938.6666666666667
25 *397:25 *397:26 0.08
26 *397:26 *397:27 213.33333333333334
27 *397:27 *397:28 0.1
28 *397:28 *397:29 0.08
29 *397:29 *397:30 341.33333333333337
30 *397:30 *397:31 0.08
31 *397:31 *397:32 213.33333333333334

*END

*D_NET *398 10.159364299999998

*CONN
*I *33:CLK I
*I *24:CLK I
*I *25:CLK I
*I *125:CLK I
*I *35:CLK I
*I *34:CLK I
*I *174:CLK I
*I *106:CLK I
*I *105:Y O

*CAP
1 *33:CLK 0.0279235
2 *24:CLK 0.0279235
3 *25:CLK 0.0279235
4 *125:CLK 0.0279235
5 *35:CLK 0.0279235
6 *34:CLK 0.0279235
7 *174:CLK 0.0279235
8 *106:CLK 0.0279235
9 *105:Y 0.0
10 *398:10 0.0009140000000000001
11 *398:11 0.029248000000000003
12 *398:12 0.15768000000000001
13 *398:13 0.027791999999999997
14 *398:14 0.06570000000000001
15 *398:15 0.006398000000000001
16 *398:16 0.027791999999999997
17 *398:17 0.28718399999999994
18 *398:18 0.064848
19 *398:19 0.11116799999999999
20 *398:20 0.039420000000000004
21 *398:21 0.010512
22 *398:22 0.22338000000000002
23 *398:23 0.002742
24 *398:24 0.07884000000000001

*RES
1 *398:1 *398:2 2.666666666666667
2 *398:2 *398:3 85.33333333333334
3 *398:3 *398:4 0.1
4 *398:4 *398:5 640.0
5 *398:5 *398:6 0.08
6 *398:6 *398:7 128.0
7 *398:7 *398:8 0.08
8 *398:8 *398:9 266.6666666666667
9 *398:9 *398:10 0.1
10 *398:10 *398:11 18.666666666666668
11 *398:11 *398:12 0.1
12 *398:12 *398:13 0.08
13 *398:13 *398:14 128.0
14 *398:14 *398:15 0.08
15 *398:15 *398:16 0.1
16 *398:16 *398:17 0.08
17 *398:17 *398:18 1322.6666666666667
18 *398:18 *398:19 0.1
19 *398:19 *398:20 0.08
20 *398:20 *398:21 298.6666666666667
21 *398:21 *398:22 0.1
22 *398:22 *398:23 0.08
23 *398:23 *398:24 512.0
24 *398:24 *398:25 0.1
25 *398:25 *398:26 160.0
26 *398:26 *398:27 42.66666666666667
27 *398:27 *398:28 906.6666666666667
28 *398:28 *398:29 0.1
29 *398:29 *398:30 8.0
30 *398:30 *398:31 0.1
31 *398:31 *398:32 320.0
32 *398:32 *398:33 0.1

*END

*D_NET *399 11.693748299999996

*CONN
*I *359:CLK I
*I *307:CLK I
*I *220:CLK I
*I *275:CLK I
*I *314:CLK I
*I *264:CLK I
*I *271:CLK I
*I *353:CLK I
*I *231:Y O

*CAP
1 *359:CLK 0.0279235
2 *307:CLK 0.0279235
3 *220:CLK 0.0279235
4 *275:CLK 0.0279235
5 *314:CLK 0.0279235
6 *264:CLK 0.0279235
7 *271:CLK 0.0279235
8 *353:CLK 0.0279235
9 *231:Y 0.0
10 *399:10 0.17082
11 *399:11 0.014624000000000002
12 *399:12 0.09198
13 *399:13 0.15768000000000001
14 *399:14 0.0009140000000000001
15 *399:15 0.058496000000000006
16 *399:16 0.0009140000000000001
17 *399:17 0.203808
18 *399:18 0.13140000000000002
19 *399:19 0.006398000000000001
20 *399:20 0.10512
21 *399:21 0.0009140000000000001
22 *399:22 0.14454

*RES
1 *399:1 *399:2 0.1
2 *399:2 *399:3 693.3333333333334
3 *399:3 *399:4 0.1
4 *399:4 *399:5 42.66666666666667
5 *399:5 *399:6 0.1
6 *399:6 *399:7 373.33333333333337
7 *399:7 *399:8 0.1
8 *399:8 *399:9 640.0
9 *399:9 *399:10 0.1
10 *399:10 *399:11 2.666666666666667
11 *399:11 *399:12 170.66666666666669
12 *399:12 *399:13 2.666666666666667
13 *399:13 *399:14 0.1
14 *399:14 *399:15 0.08
15 *399:15 *399:16 938.6666666666667
16 *399:16 *399:17 0.08
17 *399:17 *399:18 0.1
18 *399:18 *399:19 533.3333333333334
19 *399:19 *399:20 0.1
20 *399:20 *399:21 18.666666666666668
21 *399:21 *399:22 0.1
22 *399:22 *399:23 426.6666666666667
23 *399:23 *399:24 0.1
24 *399:24 *399:25 2.666666666666667
25 *399:25 *399:26 0.1
26 *399:26 *399:27 586.6666666666667

*END

*D_NET *400 13.407798299999994

*CONN
*I *363:CLK I
*I *246:CLK I
*I *319:CLK I
*I *364:CLK I
*I *241:CLK I
*I *281:CLK I
*I *189:CLK I
*I *332:CLK I
*I *198:Y O

*CAP
1 *363:CLK 0.0279235
2 *246:CLK 0.0279235
3 *319:CLK 0.0279235
4 *364:CLK 0.0279235
5 *241:CLK 0.0279235
6 *281:CLK 0.0279235
7 *189:CLK 0.0279235
8 *332:CLK 0.0279235
9 *198:Y 0.0
10 *400:10 0.07884000000000001
11 *400:11 0.22338000000000002
12 *400:12 0.006398000000000001
13 *400:13 0.01314
14 *400:14 0.194544
15 *400:15 0.014624000000000002
16 *400:16 0.15768000000000001
17 *400:17 0.014624000000000002
18 *400:18 0.0009140000000000001
19 *400:19 0.09198
20 *400:20 0.10512
21 *400:21 0.176016
22 *400:22 0.17082
23 *400:23 0.002742
24 *400:24 0.0009140000000000001
25 *400:25 0.014624000000000002
26 *400:26 0.0009140000000000001

*RES
1 *400:1 *400:2 0.1
2 *400:2 *400:3 320.0
3 *400:3 *400:4 0.1
4 *400:4 *400:5 0.1
5 *400:5 *400:6 906.6666666666667
6 *400:6 *400:7 0.1
7 *400:7 *400:8 18.666666666666668
8 *400:8 *400:9 0.1
9 *400:9 *400:10 53.333333333333336
10 *400:10 *400:11 0.08
11 *400:11 *400:12 896.0000000000001
12 *400:12 *400:13 0.08
13 *400:13 *400:14 42.66666666666667
14 *400:14 *400:15 0.1
15 *400:15 *400:16 640.0
16 *400:16 *400:17 0.1
17 *400:17 *400:18 42.66666666666667
18 *400:18 *400:19 2.666666666666667
19 *400:19 *400:20 0.1
20 *400:20 *400:21 373.33333333333337
21 *400:21 *400:22 0.1
22 *400:22 *400:23 0.1
23 *400:23 *400:24 426.6666666666667
24 *400:24 *400:25 0.08
25 *400:25 *400:26 810.6666666666667
26 *400:26 *400:27 0.08
27 *400:27 *400:28 0.1
28 *400:28 *400:29 693.3333333333334
29 *400:29 *400:30 0.1
30 *400:30 *400:31 8.0
31 *400:31 *400:32 2.666666666666667
32 *400:32 *400:33 42.66666666666667
33 *400:33 *400:34 2.666666666666667

*END

*D_NET *401 14.95887029999999

*CONN
*I *88:CLK I
*I *182:CLK I
*I *40:CLK I
*I *139:CLK I
*I *183:CLK I
*I *87:CLK I
*I *1:CLK I
*I *176:CLK I
*I *94:Y O

*CAP
1 *88:CLK 0.0279235
2 *182:CLK 0.0279235
3 *40:CLK 0.0279235
4 *139:CLK 0.0279235
5 *183:CLK 0.0279235
6 *87:CLK 0.0279235
7 *1:CLK 0.0279235
8 *176:CLK 0.0279235
9 *94:Y 0.0
10 *401:10 0.05256
11 *401:11 0.15768000000000001
12 *401:12 0.014624000000000002
13 *401:13 0.0009140000000000001
14 *401:14 0.014624000000000002
15 *401:15 0.0009140000000000001
16 *401:16 0.02628
17 *401:17 0.21307199999999998
18 *401:18 0.01314
19 *401:19 0.02628
20 *401:20 0.11116799999999999
21 *401:21 0.14454
22 *401:22 0.06570000000000001
23 *401:23 0.26280000000000003

*RES
1 *401:1 *401:2 0.1
2 *401:2 *401:3 213.33333333333334
3 *401:3 *401:4 0.1
4 *401:4 *401:5 0.1
5 *401:5 *401:6 640.0
6 *401:6 *401:7 0.1
7 *401:7 *401:8 42.66666666666667
8 *401:8 *401:9 2.666666666666667
9 *401:9 *401:10 42.66666666666667
10 *401:10 *401:11 2.666666666666667
11 *401:11 *401:12 0.1
12 *401:12 *401:13 106.66666666666667
13 *401:13 *401:14 0.08
14 *401:14 *401:15 981.3333333333335
15 *401:15 *401:16 0.08
16 *401:16 *401:17 53.333333333333336
17 *401:17 *401:18 0.1
18 *401:18 *401:19 106.66666666666667
19 *401:19 *401:20 0.08
20 *401:20 *401:21 512.0
21 *401:21 *401:22 0.1
22 *401:22 *401:23 586.6666666666667
23 *401:23 *401:24 0.1
24 *401:24 *401:25 266.6666666666667
25 *401:25 *401:26 0.1
26 *401:26 *401:27 0.1
27 *401:27 *401:28 1066.6666666666667
28 *401:28 *401:29 0.1

*END

*D_NET *402 16.97226229999999

*CONN
*I *249:CLK I
*I *260:CLK I
*I *387:CLK I
*I *209:CLK I
*I *304:CLK I
*I *384:CLK I
*I *388:CLK I
*I *375:CLK I
*I *247:Y O

*CAP
1 *249:CLK 0.0279235
2 *260:CLK 0.0279235
3 *387:CLK 0.0279235
4 *209:CLK 0.0279235
5 *304:CLK 0.0279235
6 *384:CLK 0.0279235
7 *388:CLK 0.0279235
8 *375:CLK 0.0279235
9 *247:Y 0.0
10 *402:10 0.064848
11 *402:11 0.01314
12 *402:12 0.029248000000000003
13 *402:13 0.36792
14 *402:14 0.01314
15 *402:15 0.194544
16 *402:16 0.01314
17 *402:17 0.02628
18 *402:18 0.194544
19 *402:19 0.0009140000000000001
20 *402:20 0.014624000000000002
21 *402:21 0.0009140000000000001
22 *402:22 0.09198
23 *402:23 0.203808
24 *402:24 0.01314
25 *402:25 0.16675199999999998
26 *402:26 0.15768000000000001

*RES
1 *402:1 *402:2 0.1
2 *402:2 *402:3 0.08
3 *402:3 *402:4 298.6666666666667
4 *402:4 *402:5 0.08
5 *402:5 *402:6 53.333333333333336
6 *402:6 *402:7 0.1
7 *402:7 *402:8 85.33333333333334
8 *402:8 *402:9 0.1
9 *402:9 *402:10 1493.3333333333335
10 *402:10 *402:11 0.1
11 *402:11 *402:12 0.1
12 *402:12 *402:13 53.333333333333336
13 *402:13 *402:14 0.08
14 *402:14 *402:15 896.0000000000001
15 *402:15 *402:16 0.08
16 *402:16 *402:17 53.333333333333336
17 *402:17 *402:18 0.1
18 *402:18 *402:19 106.66666666666667
19 *402:19 *402:20 0.08
20 *402:20 *402:21 896.0000000000001
21 *402:21 *402:22 2.666666666666667
22 *402:22 *402:23 42.66666666666667
23 *402:23 *402:24 2.666666666666667
24 *402:24 *402:25 0.1
25 *402:25 *402:26 373.33333333333337
26 *402:26 *402:27 0.08
27 *402:27 *402:28 938.6666666666667
28 *402:28 *402:29 0.1
29 *402:29 *402:30 53.333333333333336
30 *402:30 *402:31 0.08
31 *402:31 *402:32 768.0
32 *402:32 *402:33 0.1
33 *402:33 *402:34 640.0

*END

*D_NET *403 17.71330349999999

*CONN
*P *403 I
*I *144:A I
*I *101:C I
*I *145:A I

*CAP
1 *144:A 0.0144193
2 *101:C 0.0150799
3 *145:A 0.0186567
4 *403:4 0.01828
5 *403:5 0.014624000000000002
6 *403:6 0.09263999999999999
7 *403:7 0.07884000000000001
8 *403:8 0.0393543
9 *403:9 0.22568

*RES
1 *403:1 *403:2 53.333333333333336
2 *403:2 *403:3 42.66666666666667
3 *403:3 *403:4 0.1
4 *403:4 *403:5 0.08
5 *403:5 *403:6 426.6666666666667
6 *403:6 *403:7 0.08
7 *403:7 *403:8 320.0
8 *403:8 *403:9 0.1
9 *403:9 *403:10 159.73333333333335
10 *403:10 *403:11 0.08
11 *403:11 *403:12 0.06
12 *403:12 *403:13 1213.3333333333335
13 *403:13 *403:14 0.06

*END

*D_NET *404 19.252925399999985

*CONN
*I *315:A I
*I *357:B I
*I *222:A I
*I *311:C I
*I *229:C I
*I *267:B I
*I *240:C I
*I *145:Y O

*CAP
1 *315:A 0.0129068
2 *357:B 0.0129035
3 *222:A 0.0129068
4 *311:C 0.0129138
5 *229:C 0.0129138
6 *267:B 0.0129035
7 *240:C 0.0129138
8 *145:Y 0.0
9 *404:9 0.01314
10 *404:10 0.037056
11 *404:11 0.21024
12 *404:12 0.02628
13 *404:13 0.25012799999999996
14 *404:14 0.16675199999999998
15 *404:15 0.26280000000000003
16 *404:16 0.01314
17 *404:17 0.011579999999999998
18 *404:18 0.09548
19 *404:19 0.13140000000000002
20 *404:20 0.009264
21 *404:21 0.055583999999999995
22 *404:22 0.11826

*RES
1 *404:1 *404:2 0.1
2 *404:2 *404:3 53.333333333333336
3 *404:3 *404:4 0.08
4 *404:4 *404:5 170.66666666666669
5 *404:5 *404:6 0.08
6 *404:6 *404:7 853.3333333333334
7 *404:7 *404:8 0.1
8 *404:8 *404:9 0.1
9 *404:9 *404:10 106.66666666666667
10 *404:10 *404:11 0.08
11 *404:11 *404:12 1152.0000000000002
12 *404:12 *404:13 0.08
13 *404:13 *404:14 0.1
14 *404:14 *404:15 0.08
15 *404:15 *404:16 768.0
16 *404:16 *404:17 0.1
17 *404:17 *404:18 1066.6666666666667
18 *404:18 *404:19 0.08
19 *404:19 *404:20 0.1
20 *404:20 *404:21 53.333333333333336
21 *404:21 *404:22 0.08
22 *404:22 *404:23 53.333333333333336
23 *404:23 *404:24 0.06
24 *404:24 *404:25 513.3333333333335
25 *404:25 *404:26 0.06
26 *404:26 *404:27 0.1
27 *404:27 *404:28 533.3333333333334
28 *404:28 *404:29 0.08
29 *404:29 *404:30 42.66666666666667
30 *404:30 *404:31 0.1
31 *404:31 *404:32 0.08
32 *404:32 *404:33 256.0
33 *404:33 *404:34 0.08
34 *404:34 *404:35 480.0

*END

*D_NET *405 19.934753259999983

*CONN
*I *319:Q O
*I *147:B I
*I *239:A I

*CAP
1 *319:Q 0.0
2 *147:B 0.0179733
3 *239:A 0.00932456
4 *405:4 0.10512
5 *405:5 0.027791999999999997
6 *405:6 0.14454
7 *405:7 0.21024
8 *405:8 0.037056
9 *405:9 0.039420000000000004

*RES
1 *405:1 *405:2 0.1
2 *405:2 *405:3 426.6666666666667
3 *405:3 *405:4 0.08
4 *405:4 *405:5 128.0