*SPEF "IEEE 1481-1998" 
*DESIGN "secc"
*DATE "Mon Dec 16 23:35:49 2019"
*VENDOR "ISPD 2013 Contest"
*PROGRAM "Benchmark Parasitic Generator"
*VERSION "0.0"
*DESIGN_FLOW "NETLIST_TYPE_VERILOG"
*DIVIDER /
*DELIMITER :
*BUS_DELIMITER []
*T_UNIT 1 PS
*C_UNIT 1 FF
*R_UNIT 1 KOHM
*L_UNIT 1 UH

*NAME_MAP

*1 NAND2X1_132
*2 INVX1_53
*3 OR2X2_13
*4 NAND2X1_128
*5 NAND2X1_129
*6 INVX1_55
*7 NAND2X1_135
*8 INVX1_54
*9 NAND2X1_134
*10 NAND2X1_136
*11 NAND2X1_138
*12 NAND2X1_130
*13 NAND2X1_137
*14 NAND2X1_139
*15 NAND2X1_175
*16 AOI21X1_22
*17 AOI21X1_15
*18 AOI21X1_13
*19 INVX1_51
*20 NAND2X1_125
*21 FILL_0_0_0
*22 FILL_0_0_1
*23 FILL_0_0_2
*24 NAND2X1_143
*25 INVX1_60
*26 AOI21X1_18
*27 NAND2X1_165
*28 NAND2X1_164
*29 NAND2X1_166
*30 NAND2X1_161
*31 AOI22X1_43
*32 OAI21X1_35
*33 NAND2X1_150
*34 OAI21X1_36
*35 NAND2X1_162
*36 NAND2X1_163
*37 AOI22X1_28
*38 NAND2X1_149
*39 INVX1_59
*40 AOI22X1_30
*41 NAND2X1_159
*42 AOI22X1_27
*43 NAND2X1_160
*44 OR2X2_15
*45 AOI22X1_29
*46 OR2X2_16
*47 FILL_0_1_0
*48 FILL_0_1_1
*49 FILL_0_1_2
*50 NAND2X1_147
*51 INVX1_57
*52 BUFX2_10
*53 INVX1_10
*54 NAND3X1_14
*55 OAI21X1_10
*56 NAND2X1_12
*57 BUFX2_11
*58 BUFX2_14
*59 BUFX2_15
*60 BUFX2_7
*61 BUFX2_3
*62 INVX1_9
*63 NAND3X1_13
*64 OAI21X1_9
*65 NAND2X1_11
*66 BUFX2_13
*67 BUFX2_9
*68 NAND2X1_3
*69 FILL_1_1
*70 FILL_1_2
*71 INVX1_52
*72 NAND2X1_131
*73 NAND2X1_126
*74 AOI22X1_41
*75 AOI22X1_39
*76 NAND2X1_133
*77 AOI22X1_40
*78 AOI22X1_42
*79 NAND2X1_127
*80 OAI21X1_39
*81 OAI21X1_40
*82 NAND2X1_176
*83 INVX1_62
*84 AOI21X1_21
*85 AOI21X1_12
*86 AOI21X1_14
*87 FILL_1_0_0
*88 FILL_1_0_1
*89 FILL_1_0_2
*90 OAI22X1_12
*91 NAND2X1_140
*92 OAI22X1_13
*93 OAI22X1_16
*94 AOI21X1_17
*95 OAI22X1_22
*96 AOI22X1_44
*97 NAND2X1_177
*98 NAND2X1_179
*99 NAND2X1_178
*100 NAND2X1_180
*101 NOR2X1_33
*102 NOR2X1_32
*103 OAI22X1_20
*104 NAND3X1_46
*105 NOR2X1_35
*106 OAI22X1_21
*107 NOR2X1_34
*108 NAND2X1_144
*109 INVX1_56
*110 NAND2X1_146
*111 NAND2X1_145
*112 INVX1_58
*113 FILL_1_1_0
*114 FILL_1_1_1
*115 FILL_1_1_2
*116 NAND2X1_148
*117 NAND2X1_8
*118 OAI21X1_6
*119 INVX1_7
*120 OAI21X1_7
*121 NAND2X1_9
*122 NAND3X1_10
*123 OAI21X1_11
*124 NAND2X1_13
*125 NAND2X1_4
*126 OAI21X1_3
*127 NAND2X1_188
*128 OAI21X1_43
*129 OAI21X1_5
*130 NAND3X1_6
*131 NAND2X1_7
*132 NAND2X1_186
*133 FILL_2_1
*134 FILL_2_2
*135 NOR2X1_7
*136 XOR2X1_4
*137 XNOR2X1_5
*138 OR2X2_12
*139 XNOR2X1_6
*140 XOR2X1_8
*141 XOR2X1_7
*142 XNOR2X1_12
*143 XOR2X1_16
*144 NOR2X1_26
*145 FILL_2_0_0
*146 FILL_2_0_1
*147 FILL_2_0_2
*148 NOR2X1_22
*149 NOR2X1_23
*150 NAND2X1_152
*151 NAND2X1_157
*152 NOR2X1_27
*153 OAI22X1_15
*154 NOR2X1_24
*155 NAND2X1_156
*156 NAND2X1_151
*157 NAND2X1_155
*158 NAND3X1_44
*159 NAND2X1_167
*160 OAI22X1_14
*161 NOR2X1_25
*162 NOR2X1_21
*163 AOI21X1_16
*164 NAND2X1_142
*165 NAND2X1_181
*166 OR2X2_14
*167 XOR2X1_19
*168 XOR2X1_13
*169 XNOR2X1_18
*170 FILL_2_1_0
*171 FILL_2_1_1
*172 FILL_2_1_2
*173 BUFX2_1
*174 INVX1_6
*175 NAND3X1_8
*176 NOR3X1_2
*177 NAND3X1_15
*178 INVX1_11
*179 INVX1_3
*180 NAND3X1_3
*181 INVX1_70
*182 NAND3X1_52
*183 NOR3X1_1
*184 NOR3X1_14
*185 BUFX2_12
*186 BUFX2_6
*187 FILL_3_1
*188 NOR2X1_8
*189 OAI22X1_3
*190 NOR2X1_6
*191 OAI22X1_6
*192 AOI21X1_5
*193 NAND2X1_67
*194 NOR2X1_13
*195 NOR2X1_14
*196 OR2X2_7
*197 NAND2X1_66
*198 XNOR2X1_7
*199 XOR2X1_14
*200 XNOR2X1_14
*201 NAND2X1_154
*202 FILL_3_0_0
*203 FILL_3_0_1
*204 FILL_3_0_2
*205 NAND2X1_158
*206 NAND2X1_153
*207 AOI22X1_31
*208 AOI22X1_32
*209 AOI22X1_37
*210 NAND2X1_170
*211 AOI22X1_38
*212 NAND2X1_173
*213 NAND2X1_172
*214 NAND2X1_171
*215 NOR2X1_31
*216 OAI22X1_18
*217 NOR2X1_30
*218 NAND3X1_45
*219 OAI22X1_17
*220 NOR2X1_28
*221 NOR2X1_29
*222 NAND2X1_141
*223 XNOR2X1_16
*224 OAI21X1_41
*225 NAND2X1_184
*226 FILL_3_1_0
*227 FILL_3_1_1
*228 FILL_3_1_2
*229 INVX1_64
*230 NAND3X1_48
*231 NOR3X1_13
*232 NAND2X1_182
*233 INVX1_66
*234 NAND2X1_6
*235 INVX1_30
*236 INVX1_12
*237 OAI21X1_12
*238 NAND2X1_14
*239 NAND3X1_16
*240 OAI21X1_8
*241 NAND2X1_10
*242 INVX1_2
*243 NAND3X1_2
*244 NAND3X1_50
*245 BUFX2_16
*246 NAND2X1_25
*247 FILL_4_1
*248 NAND2X1_82
*249 NOR2X1_12
*250 NAND2X1_79
*251 NAND2X1_83
*252 AOI22X1_10
*253 NAND2X1_80
*254 AOI22X1_16
*255 NAND2X1_97
*256 NOR2X1_15
*257 NOR2X1_16
*258 NAND2X1_98
*259 NAND2X1_96
*260 NAND2X1_95
*261 XOR2X1_5
*262 XNOR2X1_4
*263 FILL_4_0_0
*264 FILL_4_0_1
*265 FILL_4_0_2
*266 XOR2X1_2
*267 XNOR2X1_1
*268 AOI22X1_25
*269 AOI22X1_23
*270 AOI22X1_24
*271 AOI22X1_26
*272 OAI22X1_19
*273 AOI21X1_19
*274 AOI21X1_20
*275 NAND2X1_118
*276 NAND2X1_122
*277 NAND2X1_174
*278 NAND2X1_111
*279 NAND2X1_121
*280 INVX1_48
*281 NAND2X1_113
*282 XOR2X1_17
*283 NAND2X1_189
*284 INVX1_69
*285 NOR2X1_40
*286 NOR2X1_42
*287 FILL_4_1_0
*288 FILL_4_1_1
*289 FILL_4_1_2
*290 INVX1_71
*291 NAND2X1_187
*292 NOR2X1_37
*293 OR2X2_17
*294 NAND3X1_47
*295 NOR2X1_2
*296 NAND3X1_7
*297 NOR2X1_5
*298 NAND3X1_9
*299 NAND3X1_11
*300 NAND3X1_51
*301 NAND3X1_5
*302 NAND3X1_49
*303 NAND3X1_12
*304 INVX1_8
*305 OAI21X1_2
*306 OAI21X1_42
*307 NOR2X1_11
*308 OAI22X1_4
*309 NAND2X1_78
*310 AOI22X1_9
*311 NOR2X1_10
*312 NAND2X1_81
*313 NOR2X1_9
*314 OAI22X1_7
*315 NAND3X1_42
*316 NAND2X1_76
*317 AOI22X1_15
*318 OAI22X1_8
*319 NAND2X1_77
*320 NAND2X1_99
*321 XOR2X1_6
*322 FILL_5_0_0
*323 FILL_5_0_1
*324 FILL_5_0_2
*325 XOR2X1_3
*326 XNOR2X1_3
*327 XOR2X1_15
*328 NAND2X1_120
*329 NAND2X1_123
*330 NAND2X1_124
*331 NAND2X1_119
*332 XNOR2X1_13
*333 INVX1_61
*334 NAND2X1_117
*335 AOI22X1_34
*336 NAND2X1_169
*337 OAI21X1_38
*338 NAND2X1_114
*339 AOI22X1_35
*340 NAND2X1_110
*341 INVX1_47
*342 NAND2X1_112
*343 NAND2X1_1
*344 INVX1_65
*345 NOR2X1_38
*346 FILL_5_1_0
*347 FILL_5_1_1
*348 FILL_5_1_2
*349 NAND2X1_31
*350 INVX1_29
*351 NOR2X1_1
*352 INVX1_1
*353 NAND3X1_1
*354 NOR2X1_3
*355 OR2X2_1
*356 NOR3X1_3
*357 NOR3X1_15
*358 NOR2X1_4
*359 OR2X2_2
*360 NOR3X1_4
*361 NAND3X1_33
*362 OAI21X1_23
*363 FILL_6_1
*364 OR2X2_3
*365 NAND3X1_41
*366 NAND2X1_92
*367 OAI22X1_5
*368 NAND2X1_32
*369 AOI22X1_11
*370 OAI21X1_31
*371 NAND2X1_94
*372 AOI22X1_14
*373 NAND2X1_33
*374 NAND2X1_93
*375 NAND2X1_36
*376 NAND2X1_46
*377 NAND2X1_42
*378 NAND2X1_47
*379 NAND2X1_43
*380 NAND2X1_48
*381 FILL_6_0_0
*382 FILL_6_0_1
*383 FILL_6_0_2
*384 NAND2X1_45
*385 NAND2X1_44
*386 NAND2X1_49
*387 XOR2X1_1
*388 XNOR2X1_2
*389 XOR2X1_12
*390 XNOR2X1_10
*391 OR2X2_10
*392 OAI21X1_37
*393 AOI22X1_36
*394 NAND2X1_108
*395 NAND2X1_107
*396 AOI22X1_33
*397 OR2X2_11
*398 OAI21X1_44
*399 NAND2X1_2
*400 OAI21X1_1
*401 NOR3X1_9
*402 FILL_6_1_0
*403 FILL_6_1_1
*404 FILL_6_1_2
*405 NOR3X1_5
*406 NOR3X1_16
*407 NAND3X1_53
*408 NOR2X1_41
*409 OR2X2_18
*410 NOR3X1_7
*411 NOR3X1_11
*412 OAI21X1_27
*413 NAND3X1_39
*414 NAND2X1_29
*415 BUFX2_31
*416 FILL_7_1
*417 NAND2X1_38
*418 INVX1_32
*419 INVX1_31
*420 NAND2X1_37
*421 NAND2X1_39
*422 AOI22X1_12
*423 AOI22X1_13
*424 NAND2X1_35
*425 OAI21X1_32
*426 NAND2X1_34
*427 INVX1_45
*428 NAND2X1_40
*429 INVX1_33
*430 AOI21X1_8
*431 AOI21X1_9
*432 NAND2X1_41
*433 INVX1_34
*434 AOI22X1_4
*435 FILL_7_0_0
*436 FILL_7_0_1
*437 FILL_7_0_2
*438 AOI22X1_1
*439 AOI22X1_3
*440 AOI22X1_2
*441 OAI22X1_1
*442 OAI22X1_2
*443 NAND2X1_65
*444 XNOR2X1_11
*445 XOR2X1_11
*446 INVX1_49
*447 NAND2X1_115
*448 XOR2X1_18
*449 INVX1_50
*450 NAND2X1_116
*451 INVX1_4
*452 NAND3X1_4
*453 NAND2X1_109
*454 NAND2X1_190
*455 INVX1_72
*456 NAND3X1_54
*457 NOR3X1_10
*458 FILL_7_1_0
*459 FILL_7_1_1
*460 FILL_7_1_2
*461 INVX1_13
*462 NAND3X1_18
*463 NAND3X1_29
*464 NAND3X1_17
*465 NAND3X1_31
*466 NAND3X1_19
*467 NOR3X1_6
*468 NAND3X1_35
*469 NAND3X1_21
*470 NOR2X1_36
*471 INVX1_63
*472 NAND2X1_185
*473 INVX1_67
*474 NAND2X1_183
*475 NOR2X1_39
*476 INVX1_23
*477 BUFX2_2
*478 INVX1_42
*479 NAND2X1_73
*480 NAND2X1_91
*481 NAND2X1_89
*482 NAND2X1_86
*483 AOI21X1_6
*484 NAND2X1_90
*485 AOI21X1_7
*486 INVX1_44
*487 OR2X2_4
*488 AOI22X1_21
*489 NAND2X1_103
*490 NAND2X1_102
*491 AOI22X1_22
*492 NAND2X1_104
*493 XOR2X1_10
*494 FILL_8_0_0
*495 FILL_8_0_1
*496 FILL_8_0_2
*497 XNOR2X1_8
*498 XOR2X1_9
*499 XNOR2X1_9
*500 AOI21X1_2
*501 AOI21X1_4
*502 XOR2X1_20
*503 NAND2X1_51
*504 XNOR2X1_15
*505 INVX1_26
*506 OAI21X1_4
*507 NAND2X1_5
*508 OAI21X1_26
*509 NAND2X1_28
*510 NAND3X1_38
*511 OAI21X1_22
*512 NAND2X1_24
*513 INVX1_22
*514 NAND3X1_32
*515 OAI21X1_13
*516 FILL_8_1_0
*517 FILL_8_1_1
*518 FILL_8_1_2
*519 NOR3X1_12
*520 NAND2X1_15
*521 INVX1_28
*522 INVX1_14
*523 OAI21X1_14
*524 NAND2X1_16
*525 NAND3X1_20
*526 INVX1_15
*527 OAI21X1_15
*528 NAND2X1_17
*529 NAND3X1_22
*530 NAND3X1_23
*531 BUFX2_19
*532 NOR3X1_8
*533 INVX1_27
*534 BUFX2_18
*535 BUFX2_27
*536 INVX1_43
*537 NAND2X1_74
*538 NAND2X1_88
*539 AOI22X1_6
*540 NAND2X1_87
*541 OR2X2_9
*542 NAND2X1_85
*543 NAND2X1_70
*544 NAND2X1_75
*545 OAI21X1_29
*546 OAI22X1_10
*547 NOR2X1_20
*548 NOR2X1_19
*549 NAND2X1_105
*550 NOR2X1_17
*551 OAI22X1_11
*552 NAND2X1_106
*553 FILL_9_0_0
*554 FILL_9_0_1
*555 FILL_9_0_2
*556 AOI21X1_10
*557 AOI21X1_3
*558 NAND2X1_50
*559 AOI21X1_11
*560 INVX1_35
*561 AOI21X1_1
*562 NAND2X1_168
*563 NAND2X1_62
*564 NAND2X1_63
*565 NAND2X1_61
*566 NAND2X1_64
*567 NAND2X1_55
*568 NAND2X1_52
*569 NAND2X1_54
*570 NAND2X1_53
*571 OR2X2_6
*572 INVX1_39
*573 NAND2X1_60
*574 BUFX2_8
*575 BUFX2_30
*576 OAI21X1_17
*577 BUFX2_4
*578 BUFX2_5
*579 OAI21X1_25
*580 OAI21X1_21
*581 INVX1_21
*582 FILL_9_1_0
*583 FILL_9_1_1
*584 FILL_9_1_2
*585 NAND3X1_30
*586 INVX1_24
*587 NAND3X1_36
*588 NAND3X1_40
*589 OAI21X1_28
*590 NAND2X1_26
*591 OAI21X1_24
*592 OAI21X1_18
*593 OAI21X1_19
*594 INVX1_16
*595 OAI21X1_16
*596 OAI21X1_20
*597 NAND2X1_18
*598 NAND3X1_24
*599 NAND2X1_22
*600 BUFX2_24
*601 NAND3X1_34
*602 FILL_10_1
*603 OR2X2_8
*604 NAND2X1_69
*605 NAND2X1_84
*606 AOI22X1_8
*607 NAND2X1_71
*608 INVX1_40
*609 AOI22X1_5
*610 AOI22X1_7
*611 OAI21X1_30
*612 INVX1_41
*613 NAND2X1_72
*614 NAND2X1_68
*615 OAI22X1_9
*616 NOR2X1_18
*617 NAND3X1_43
*618 NAND2X1_101
*619 FILL_10_0_0
*620 FILL_10_0_1
*621 FILL_10_0_2
*622 OAI21X1_33
*623 NAND2X1_100
*624 INVX1_46
*625 OAI21X1_34
*626 NAND2X1_56
*627 INVX1_36
*628 INVX1_37
*629 NAND2X1_57
*630 NAND2X1_58
*631 AOI22X1_18
*632 AOI22X1_19
*633 AOI22X1_17
*634 AOI22X1_20
*635 OR2X2_5
*636 INVX1_38
*637 NAND2X1_59
*638 XNOR2X1_17
*639 BUFX2_21
*640 NAND2X1_19
*641 INVX1_17
*642 NAND3X1_25
*643 NAND2X1_27
*644 BUFX2_29
*645 INVX1_25
*646 NAND3X1_37
*647 FILL_10_1_0
*648 FILL_10_1_1
*649 FILL_10_1_2
*650 BUFX2_26
*651 NAND2X1_23
*652 BUFX2_25
*653 BUFX2_17
*654 NAND2X1_30
*655 BUFX2_32
*656 BUFX2_28
*657 INVX1_18
*658 NAND3X1_26
*659 NAND2X1_20
*660 BUFX2_22
*661 INVX1_19
*662 NAND3X1_27
*663 NAND2X1_21
*664 BUFX2_23
*665 BUFX2_20
*666 NAND3X1_28
*667 INVX1_20
*668 INVX1_68
*669 INVX1_5
*670 FILL_11_1
*671 Ckt499b.M1.S<0>
*672 _538_
*673 _412_
*674 _535_
*675 in17
*676 _413_
*677 _414_
*678 Ckt499b.M1.S<1>
*679 _528_
*680 _415_
*681 _545_
*682 _416_
*683 _4_
*684 _548_
*685 in21
*686 _417_
*687 _418_
*688 _552_
*689 _419_
*690 _5_
*691 _397_
*692 in25
*693 _420_
*694 _421_
*695 _403_
*696 _422_
*697 _6_
*698 _406_
*699 in29
*700 _423_
*701 _424_
*702 _410_
*703 _425_
*704 _7_
*705 Ckt499b.M1.S<3>
*706 _540_
*707 _426_
*708 _534_
*709 _533_
*710 _427_
*711 _529_
*712 in33
*713 _428_
*714 _429_
*715 Ckt499b.M1.S<2>
*716 _530_
*717 _430_
*718 _544_
*719 _543_
*720 _431_
*721 _539_
*722 _432_
*723 _8_
*724 _547_
*725 _433_
*726 in37
*727 _434_
*728 _435_
*729 _551_
*730 _436_
*731 _437_
*732 _9_
*733 _396_
*734 _395_
*735 _438_
*736 in41
*737 _439_
*738 _440_
*739 _402_
*740 _401_
*741 _441_
*742 _442_
*743 _10_
*744 _405_
*745 _443_
*746 in45
*747 _444_
*748 _445_
*749 _409_
*750 _446_
*751 _447_
*752 _11_
*753 in49
*754 _448_
*755 _449_
*756 _450_
*757 _12_
*758 in53
*759 _451_
*760 _452_
*761 _453_
*762 _13_
*763 in57
*764 _454_
*765 _455_
*766 _456_
*767 _14_
*768 in61
*769 _457_
*770 _458_
*771 _459_
*772 _15_
*773 _460_
*774 _531_
*775 _461_
*776 in65
*777 _462_
*778 _463_
*779 _464_
*780 _541_
*781 _465_
*782 _466_
*783 _16_
*784 _467_
*785 in69
*786 _468_
*787 _469_
*788 _470_
*789 _471_
*790 _17_
*791 _472_
*792 _473_
*793 in73
*794 _474_
*795 _475_
*796 _476_
*797 _477_
*798 _478_
*799 _18_
*800 _479_
*801 in77
*802 _480_
*803 _481_
*804 _482_
*805 _483_
*806 _19_
*807 in81
*808 _484_
*809 _485_
*810 _486_
*811 _20_
*812 in85
*813 _487_
*814 _488_
*815 _489_
*816 _21_
*817 in89
*818 _490_
*819 _491_
*820 _492_
*821 _22_
*822 in93
*823 _493_
*824 _494_
*825 _495_
*826 _23_
*827 _496_
*828 in97
*829 _497_
*830 _498_
*831 _499_
*832 _500_
*833 _24_
*834 _501_
*835 in101
*836 _502_
*837 _503_
*838 _504_
*839 _505_
*840 _25_
*841 _506_
*842 in105
*843 _507_
*844 _508_
*845 _509_
*846 _510_
*847 _26_
*848 _511_
*849 in109
*850 _512_
*851 _513_
*852 _514_
*853 _515_
*854 _27_
*855 in113
*856 _516_
*857 _517_
*858 _518_
*859 _28_
*860 in117
*861 _519_
*862 _520_
*863 _521_
*864 _29_
*865 in121
*866 _522_
*867 _523_
*868 _524_
*869 _30_
*870 in125
*871 _525_
*872 _526_
*873 _527_
*874 _31_
*875 _0_
*876 out724
*877 _1_
*878 out725
*879 _2_
*880 out726
*881 _3_
*882 out727
*883 out728
*884 out729
*885 out730
*886 out731
*887 out732
*888 out733
*889 out734
*890 out735
*891 out736
*892 out737
*893 out738
*894 out739
*895 out740
*896 out741
*897 out742
*898 out743
*899 out744
*900 out745
*901 out746
*902 out747
*903 out748
*904 out749
*905 out750
*906 out751
*907 out752
*908 out753
*909 out754
*910 out755
*911 _344_
*912 _345_
*913 _346_
*914 _347_
*915 _348_
*916 _349_
*917 _350_
*918 _351_
*919 _352_
*920 _353_
*921 _354_
*922 _355_
*923 _356_
*924 _357_
*925 _358_
*926 _359_
*927 _360_
*928 _361_
*929 in1
*930 _362_
*931 _363_
*932 _364_
*933 _365_
*934 _366_
*935 _367_
*936 _368_
*937 _369_
*938 _370_
*939 _371_
*940 _372_
*941 _373_
*942 in129
*943 in137
*944 _374_
*945 _375_
*946 _376_
*947 _377_
*948 _378_
*949 _379_
*950 _380_
*951 _381_
*952 _382_
*953 _383_
*954 _384_
*955 _385_
*956 _386_
*957 _387_
*958 _388_
*959 _389_
*960 _390_
*961 _391_
*962 _392_
*963 _393_
*964 _32_
*965 _33_
*966 _34_
*967 _35_
*968 _36_
*969 _37_
*970 _38_
*971 _39_
*972 _40_
*973 _41_
*974 Ckt499b.M1.S<7>
*975 _42_
*976 _43_
*977 _44_
*978 _45_
*979 _46_
*980 _47_
*981 _48_
*982 in5
*983 _49_
*984 _50_
*985 _51_
*986 _52_
*987 _53_
*988 _54_
*989 _55_
*990 _56_
*991 _57_
*992 _58_
*993 _59_
*994 _60_
*995 _61_
*996 in130
*997 _62_
*998 _63_
*999 _64_
*1000 _65_
*1001 _66_
*1002 _67_
*1003 _68_
*1004 _69_
*1005 _70_
*1006 _71_
*1007 _72_
*1008 _73_
*1009 _74_
*1010 _75_
*1011 _76_
*1012 _77_
*1013 _78_
*1014 _79_
*1015 _80_
*1016 _81_
*1017 _82_
*1018 _83_
*1019 _84_
*1020 _85_
*1021 _86_
*1022 _87_
*1023 _88_
*1024 _89_
*1025 _90_
*1026 _91_
*1027 _92_
*1028 _93_
*1029 _94_
*1030 _95_
*1031 _96_
*1032 _97_
*1033 _98_
*1034 _99_
*1035 _100_
*1036 _101_
*1037 _102_
*1038 _103_
*1039 _104_
*1040 Ckt499b.M1.S<6>
*1041 _105_
*1042 _106_
*1043 in131
*1044 _107_
*1045 _108_
*1046 _109_
*1047 _110_
*1048 _111_
*1049 _112_
*1050 _113_
*1051 in9
*1052 _114_
*1053 _115_
*1054 _116_
*1055 _117_
*1056 _118_
*1057 _119_
*1058 _120_
*1059 _121_
*1060 _122_
*1061 _123_
*1062 _124_
*1063 _125_
*1064 _126_
*1065 _127_
*1066 _128_
*1067 _129_
*1068 _130_
*1069 _131_
*1070 _132_
*1071 _133_
*1072 Ckt499b.M1.S<5>
*1073 _134_
*1074 _135_
*1075 in132
*1076 _136_
*1077 _137_
*1078 _138_
*1079 _139_
*1080 _140_
*1081 _141_
*1082 _142_
*1083 in13
*1084 _143_
*1085 _144_
*1086 _145_
*1087 _146_
*1088 _147_
*1089 _148_
*1090 _149_
*1091 _150_
*1092 _151_
*1093 _152_
*1094 _153_
*1095 _154_
*1096 _155_
*1097 _156_
*1098 _157_
*1099 _158_
*1100 _159_
*1101 _160_
*1102 _161_
*1103 _162_
*1104 Ckt499b.M1.S<4>
*1105 _163_
*1106 _164_
*1107 _165_
*1108 _166_
*1109 _167_
*1110 _168_
*1111 _169_
*1112 _170_
*1113 _171_
*1114 _172_
*1115 _173_
*1116 _174_
*1117 _175_
*1118 _176_
*1119 _177_
*1120 _178_
*1121 _179_
*1122 _180_
*1123 _181_
*1124 _182_
*1125 _183_
*1126 _184_
*1127 _185_
*1128 _186_
*1129 _187_
*1130 _188_
*1131 _189_
*1132 _190_
*1133 _191_
*1134 _192_
*1135 in133
*1136 _193_
*1137 _194_
*1138 _195_
*1139 _196_
*1140 _197_
*1141 _198_
*1142 _199_
*1143 _200_
*1144 _201_
*1145 _202_
*1146 _203_
*1147 _204_
*1148 _205_
*1149 _206_
*1150 _207_
*1151 _208_
*1152 _209_
*1153 _210_
*1154 _211_
*1155 _212_
*1156 _213_
*1157 _214_
*1158 _215_
*1159 _216_
*1160 _217_
*1161 _218_
*1162 _219_
*1163 _220_
*1164 _221_
*1165 _222_
*1166 _223_
*1167 _224_
*1168 _225_
*1169 _226_
*1170 _227_
*1171 _228_
*1172 _229_
*1173 _230_
*1174 _231_
*1175 _232_
*1176 _233_
*1177 _234_
*1178 _235_
*1179 _236_
*1180 _237_
*1181 _238_
*1182 _239_
*1183 _240_
*1184 _241_
*1185 _242_
*1186 in134
*1187 _243_
*1188 _244_
*1189 _245_
*1190 _246_
*1191 _247_
*1192 _248_
*1193 _249_
*1194 _250_
*1195 _251_
*1196 _252_
*1197 _253_
*1198 _254_
*1199 _255_
*1200 _256_
*1201 _257_
*1202 _258_
*1203 _259_
*1204 _260_
*1205 _261_
*1206 _262_
*1207 _263_
*1208 _264_
*1209 _265_
*1210 _266_
*1211 _267_
*1212 _268_
*1213 _269_
*1214 _270_
*1215 _271_
*1216 _272_
*1217 _273_
*1218 _274_
*1219 _275_
*1220 _276_
*1221 _277_
*1222 _278_
*1223 _279_
*1224 _280_
*1225 _281_
*1226 _282_
*1227 _283_
*1228 _284_
*1229 _285_
*1230 _286_
*1231 _287_
*1232 in135
*1233 _288_
*1234 _289_
*1235 _290_
*1236 _291_
*1237 _292_
*1238 _293_
*1239 _294_
*1240 _295_
*1241 _296_
*1242 _297_
*1243 _298_
*1244 _299_
*1245 _300_
*1246 _301_
*1247 _302_
*1248 _303_
*1249 _304_
*1250 _305_
*1251 _306_
*1252 _307_
*1253 _308_
*1254 _309_
*1255 _310_
*1256 _311_
*1257 _312_
*1258 _313_
*1259 _314_
*1260 _315_
*1261 _316_
*1262 in136
*1263 _317_
*1264 _318_
*1265 _319_
*1266 _320_
*1267 _321_
*1268 _322_
*1269 _323_
*1270 _324_
*1271 _325_
*1272 _326_
*1273 _327_
*1274 _328_
*1275 _329_
*1276 _330_
*1277 _331_
*1278 _332_
*1279 _333_
*1280 _334_
*1281 _335_
*1282 _336_
*1283 _337_
*1284 _338_
*1285 _339_
*1286 _340_
*1287 _341_
*1288 _342_
*1289 _343_
*1290 _532_
*1291 _536_
*1292 _537_
*1293 _542_
*1294 _546_
*1295 _549_
*1296 _550_
*1297 _553_
*1298 _394_
*1299 _398_
*1300 _399_
*1301 _400_
*1302 _404_
*1303 _407_
*1304 _408_
*1305 _411_

*D_NET *671 0.9393364600000002

*CONN
*I *345:A I
*I *165:Y O
*I *350:A I
*I *355:B I
*I *354:B I
*I *343:A I

*CAP
1 *345:A 0.0144193
2 *165:Y 0.0
3 *350:A 0.00932456
4 *355:B 0.0143643
5 *354:B 0.0150643
6 *343:A 0.0125
7 *671:7 0.064848
8 *671:8 0.01314
9 *671:9 0.07884000000000001
10 *671:10 0.09263999999999999
11 *671:11 0.05208
12 *671:12 0.05256
13 *671:13 0.101904
14 *671:14 0.039420000000000004
15 *671:15 0.037056
16 *671:16 0.02628
17 *671:17 0.176016
18 *671:18 0.13888

*RES
1 *671:1 *671:2 0.1
2 *671:2 *671:3 0.08
3 *671:3 *671:4 298.6666666666667
4 *671:4 *671:5 0.08
5 *671:5 *671:6 53.333333333333336
6 *671:6 *671:7 0.1
7 *671:7 *671:8 0.1
8 *671:8 *671:9 320.0
9 *671:9 *671:10 0.08
10 *671:10 *671:11 426.6666666666667
11 *671:11 *671:12 0.06
12 *671:12 *671:13 280.00000000000006
13 *671:13 *671:14 0.06
14 *671:14 *671:15 0.1
15 *671:15 *671:16 213.33333333333334
16 *671:16 *671:17 0.08
17 *671:17 *671:18 469.33333333333337
18 *671:18 *671:19 0.08
19 *671:19 *671:20 0.1
20 *671:20 *671:21 160.0
21 *671:21 *671:22 0.08
22 *671:22 *671:23 170.66666666666669
23 *671:23 *671:24 0.1
24 *671:24 *671:25 106.66666666666667
25 *671:25 *671:26 0.08
26 *671:26 *671:27 810.6666666666667
27 *671:27 *671:28 0.06
28 *671:28 *671:29 746.6666666666667

*END

*D_NET *672 1.07684872

*CONN
*I *345:B I
*I *344:Y O
*I *343:B I

*CAP
1 *345:B 0.0150643
2 *344:Y 0.0
3 *343:B 0.0129035
4 *672:4 0.029248000000000003
5 *672:5 0.014624000000000002

*RES
1 *672:1 *672:2 85.33333333333334
2 *672:2 *672:3 42.66666666666667

*END

*D_NET *673 4.156466119999998

*CONN
*I *519:C I
*I *532:C I
*I *237:A I
*I *123:A I
*I *55:A I
*I *64:A I
*I *506:A I
*I *126:A I
*I *305:A I
*I *400:A I
*I *343:Y O

*CAP
1 *519:C 0.0207948
2 *532:C 0.0207948
3 *237:A 0.017346
4 *123:A 0.017346
5 *55:A 0.017346
6 *64:A 0.017346
7 *506:A 0.017346
8 *126:A 0.017346
9 *305:A 0.017346
10 *400:A 0.017346
11 *343:Y 0.0
12 *673:12 0.014624000000000002
13 *673:13 0.15768000000000001
14 *673:14 0.029248000000000003
15 *673:15 0.23652
16 *673:16 0.101904
17 *673:17 0.01314
18 *673:18 0.01314
19 *673:19 0.361296
20 *673:20 0.06570000000000001
21 *673:21 0.352032
22 *673:22 0.06570000000000001
23 *673:23 0.064848
24 *673:24 0.037056
25 *673:25 0.29512
26 *673:26 0.009264
27 *673:27 0.09198
28 *673:28 0.18527999999999997
29 *673:29 0.05208
30 *673:30 0.18396
31 *673:31 0.018528
32 *673:32 0.07884000000000001
33 *673:33 0.09263999999999999
34 *673:34 0.09198
35 *673:35 0.055583999999999995
36 *673:36 0.09198
37 *673:37 0.11116799999999999

*RES
1 *673:1 *673:2 42.66666666666667
2 *673:2 *673:3 0.1
3 *673:3 *673:4 640.0
4 *673:4 *673:5 0.1
5 *673:5 *673:6 85.33333333333334
6 *673:6 *673:7 0.1
7 *673:7 *673:8 960.0
8 *673:8 *673:9 0.08
9 *673:9 *673:10 469.33333333333337
10 *673:10 *673:11 0.08
11 *673:11 *673:12 53.333333333333336
12 *673:12 *673:13 0.1
13 *673:13 *673:14 53.333333333333336
14 *673:14 *673:15 0.08
15 *673:15 *673:16 1664.0
16 *673:16 *673:17 0.08
17 *673:17 *673:18 0.1
18 *673:18 *673:19 266.6666666666667
19 *673:19 *673:20 0.08
20 *673:20 *673:21 1621.3333333333335
21 *673:21 *673:22 0.08
22 *673:22 *673:23 266.6666666666667
23 *673:23 *673:24 0.08
24 *673:24 *673:25 298.6666666666667
25 *673:25 *673:26 0.1
26 *673:26 *673:27 0.08
27 *673:27 *673:28 170.66666666666669
28 *673:28 *673:29 0.06
29 *673:29 *673:30 1586.666666666667
30 *673:30 *673:31 0.06
31 *673:31 *673:32 42.66666666666667
32 *673:32 *673:33 0.1
33 *673:33 *673:34 373.33333333333337
34 *673:34 *673:35 0.08
35 *673:35 *673:36 853.3333333333334
36 *673:36 *673:37 0.06
37 *673:37 *673:38 280.00000000000006
38 *673:38 *673:39 0.1
39 *673:39 *673:40 746.6666666666667
40 *673:40 *673:41 0.08
41 *673:41 *673:42 85.33333333333334
42 *673:42 *673:43 0.08
43 *673:43 *673:44 320.0
44 *673:44 *673:45 0.1
45 *673:45 *673:46 0.08
46 *673:46 *673:47 426.6666666666667
47 *673:47 *673:48 0.08
48 *673:48 *673:49 0.1
49 *673:49 *673:50 373.33333333333337
50 *673:50 *673:51 0.08
51 *673:51 *673:52 256.0
52 *673:52 *673:53 0.1
53 *673:53 *673:54 373.33333333333337
54 *673:54 *673:55 0.08
55 *673:55 *673:56 512.0

*END

*D_NET *674 5.017295319999999

*CONN
*I *224:B I
*I *294:Y O
*I *400:B I

*CAP
1 *224:B 0.0182038
2 *294:Y 0.0
3 *400:B 0.0182038
4 *674:4 0.11826
5 *674:5 0.010512
6 *674:6 0.28908
7 *674:7 0.01314
8 *674:8 0.21307199999999998

*RES
1 *674:1 *674:2 0.1
2 *674:2 *674:3 480.0
3 *674:3 *674:4 42.66666666666667
4 *674:4 *674:5 1173.3333333333335
5 *674:5 *674:6 0.1
6 *674:6 *674:7 0.1
7 *674:7 *674:8 53.333333333333336
8 *674:8 *674:9 0.08
9 *674:9 *674:10 981.3333333333335
10 *674:10 *674:11 0.08

*END

*D_NET *675 7.527924339999997

*CONN
*P *675 I
*I *2:A I
*I *72:A I
*I *138:A I
*I *73:A I
*I *388:A I
*I *387:A I
*I *352:A I
*I *400:C I

*CAP
1 *2:A 0.00932456
2 *72:A 0.0125
3 *138:A 0.015065
4 *73:A 0.0125
5 *388:A 0.0296656
6 *387:A 0.0296528
7 *352:A 0.00932456
8 *400:C 0.0129138
9 *675:9 0.064848
10 *675:10 0.039420000000000004
11 *675:11 0.12043199999999998
12 *675:12 0.10512
13 *675:13 0.0009140000000000001
14 *675:14 0.07884000000000001
15 *675:15 0.055583999999999995
16 *675:16 0.02628
17 *675:17 0.407616
18 *675:18 0.12043199999999998
19 *675:19 0.157488
20 *675:20 0.29512
21 *675:21 0.352032
22 *675:22 0.06570000000000001
23 *675:23 0.06570000000000001
24 *675:24 0.11116799999999999
25 *675:25 0.11826
26 *675:26 0.014624000000000002
27 *675:27 0.0647901
28 *675:28 0.07884000000000001

*RES
1 *675:1 *675:2 0.1
2 *675:2 *675:3 0.08
3 *675:3 *675:4 298.6666666666667
4 *675:4 *675:5 0.08
5 *675:5 *675:6 160.0
6 *675:6 *675:7 0.08
7 *675:7 *675:8 554.6666666666667
8 *675:8 *675:9 0.08
9 *675:9 *675:10 426.6666666666667
10 *675:10 *675:11 0.1
11 *675:11 *675:12 2.666666666666667
12 *675:12 *675:13 0.1
13 *675:13 *675:14 320.0
14 *675:14 *675:15 0.08
15 *675:15 *675:16 256.0
16 *675:16 *675:17 0.08
17 *675:17 *675:18 106.66666666666667
18 *675:18 *675:19 0.08
19 *675:19 *675:20 1877.3333333333335
20 *675:20 *675:21 0.08
21 *675:21 *675:22 0.1
22 *675:22 *675:23 0.08
23 *675:23 *675:24 554.6666666666667
24 *675:24 *675:25 0.08
25 *675:25 *675:26 0.1
26 *675:26 *675:27 0.08
27 *675:27 *675:28 725.3333333333334
28 *675:28 *675:29 0.06
29 *675:29 *675:30 1586.666666666667
30 *675:30 *675:31 0.06
31 *675:31 *675:32 1621.3333333333335
32 *675:32 *675:33 0.08
33 *675:33 *675:34 266.6666666666667
34 *675:34 *675:35 0.1
35 *675:35 *675:36 266.6666666666667
36 *675:36 *675:37 0.08
37 *675:37 *675:38 512.0
38 *675:38 *675:39 0.08
39 *675:39 *675:40 480.0
40 *675:40 *675:41 42.66666666666667
41 *675:41 *675:42 298.4
42 *675:42 *675:43 0.08
43 *675:43 *675:44 0.1
44 *675:44 *675:45 320.0
45 *675:45 *675:46 0.1

*END

*D_NET *676 7.685994659999997

*CONN
*I *399:A I
*I *400:Y O

*CAP
1 *399:A 0.0125
2 *400:Y 0.0
3 *676:3 0.014624000000000002

*RES
1 *676:1 *676:2 42.66666666666667

*END

*D_NET *677 7.728999859999997

*CONN
*I *353:A I
*I *352:Y O

*CAP
1 *353:A 0.0158812
2 *352:Y 0.0
3 *677:3 0.014624000000000002

*RES
1 *677:1 *677:2 42.66666666666667

*END

*D_NET *678 8.471225219999994

*CONN
*I *344:A I
*I *277:Y O
*I *349:A I
*I *355:A I
*I *354:A I
*I *351:A I

*CAP
1 *344:A 0.00932456
2 *277:Y 0.0
3 *349:A 0.0125
4 *355:A 0.015065
5 *354:A 0.0144193
6 *351:A 0.0144193
7 *678:7 0.01314
8 *678:8 0.064848
9 *678:9 0.02628
10 *678:10 0.01314
11 *678:11 0.074112
12 *678:12 0.039420000000000004
13 *678:13 0.08337599999999999
14 *678:14 0.01314
15 *678:15 0.014624000000000002
16 *678:16 0.06570000000000001
17 *678:17 0.101904
18 *678:18 0.01736
19 *678:19 0.12043199999999998
20 *678:20 0.01314

*RES
1 *678:1 *678:2 0.1
2 *678:2 *678:3 53.333333333333336
3 *678:3 *678:4 0.08
4 *678:4 *678:5 298.6666666666667
5 *678:5 *678:6 0.08
6 *678:6 *678:7 106.66666666666667
7 *678:7 *678:8 0.1
8 *678:8 *678:9 0.1
9 *678:9 *678:10 53.333333333333336
10 *678:10 *678:11 0.08
11 *678:11 *678:12 341.33333333333337
12 *678:12 *678:13 0.08
13 *678:13 *678:14 0.1
14 *678:14 *678:15 160.0
15 *678:15 *678:16 0.08
16 *678:16 *678:17 384.0
17 *678:17 *678:18 0.08
18 *678:18 *678:19 53.333333333333336
19 *678:19 *678:20 42.66666666666667
20 *678:20 *678:21 0.1
21 *678:21 *678:22 266.6666666666667
22 *678:22 *678:23 0.08
23 *678:23 *678:24 469.33333333333337
24 *678:24 *678:25 0.06
25 *678:25 *678:26 93.33333333333334
26 *678:26 *678:27 0.06
27 *678:27 *678:28 554.6666666666667
28 *678:28 *678:29 0.08
29 *678:29 *678:30 53.333333333333336

*END

*D_NET *679 8.608793179999994

*CONN
*I *349:B I
*I *350:Y O
*I *351:B I

*CAP
1 *349:B 0.0129035
2 *350:Y 0.0
3 *351:B 0.0150643
4 *679:4 0.014624000000000002
5 *679:5 0.029248000000000003

*RES
1 *679:1 *679:2 42.66666666666667
2 *679:2 *679:3 85.33333333333334

*END

*D_NET *680 11.222159779999988

*CONN
*I *468:C I
*I *530:C I
*I *239:B I
*I *177:B I
*I *54:B I
*I *63:B I
*I *452:B I
*I *180:B I
*I *243:B I
*I *353:B I
*I *351:Y O

*CAP
1 *468:C 0.0164926
2 *530:C 0.0164926
3 *239:B 0.0159247
4 *177:B 0.0159247
5 *54:B 0.0159247
6 *63:B 0.0159247
7 *452:B 0.0159247
8 *180:B 0.0159247
9 *243:B 0.0159247
10 *353:B 0.0159247
11 *351:Y 0.0
12 *680:12 0.027791999999999997
13 *680:13 0.029248000000000003
14 *680:14 0.21307199999999998
15 *680:15 0.26280000000000003
16 *680:16 0.12043199999999998
17 *680:17 0.010512
18 *680:18 0.009264
19 *680:19 0.07812000000000001
20 *680:20 0.064848
21 *680:21 0.38106
22 *680:22 0.259392
23 *680:23 0.11116799999999999
24 *680:24 0.19096
25 *680:25 0.09263999999999999
26 *680:26 0.09198
27 *680:27 0.064848
28 *680:28 0.41688

*RES
1 *680:1 *680:2 0.1
2 *680:2 *680:3 0.08
3 *680:3 *680:4 128.0
4 *680:4 *680:5 0.08
5 *680:5 *680:6 0.1
6 *680:6 *680:7 85.33333333333334
7 *680:7 *680:8 0.1
8 *680:8 *680:9 0.08
9 *680:9 *680:10 981.3333333333335
10 *680:10 *680:11 0.08
11 *680:11 *680:12 1066.6666666666667
12 *680:12 *680:13 0.1
13 *680:13 *680:14 0.08
14 *680:14 *680:15 554.6666666666667
15 *680:15 *680:16 0.1
16 *680:16 *680:17 42.66666666666667
17 *680:17 *680:18 0.08
18 *680:18 *680:19 42.66666666666667
19 *680:19 *680:20 0.06
20 *680:20 *680:21 420.00000000000006
21 *680:21 *680:22 0.06
22 *680:22 *680:23 0.1
23 *680:23 *680:24 0.08
24 *680:24 *680:25 298.6666666666667
25 *680:25 *680:26 0.1
26 *680:26 *680:27 1546.6666666666667
27 *680:27 *680:28 0.08
28 *680:28 *680:29 0.1
29 *680:29 *680:30 0.08
30 *680:30 *680:31 1194.6666666666667
31 *680:31 *680:32 0.08
32 *680:32 *680:33 0.1
33 *680:33 *680:34 0.08
34 *680:34 *680:35 512.0
35 *680:35 *680:36 0.06
36 *680:36 *680:37 1026.666666666667
37 *680:37 *680:38 0.06
38 *680:38 *680:39 426.6666666666667
39 *680:39 *680:40 0.1
40 *680:40 *680:41 373.33333333333337
41 *680:41 *680:42 0.08
42 *680:42 *680:43 298.6666666666667
43 *680:43 *680:44 0.1
44 *680:44 *680:45 0.08
45 *680:45 *680:46 1920.0
46 *680:46 *680:47 0.06

*END

*D_NET *681 11.74386977999998

*CONN
*I *230:C I
*I *231:Y O
*I *353:C I

*CAP
1 *230:C 0.0164926
2 *231:Y 0.0
3 *353:C 0.0164926
4 *681:4 0.04631999999999999
5 *681:5 0.22338000000000002
6 *681:6 0.00457
7 *681:7 0.02628
8 *681:8 0.027791999999999997

*RES
1 *681:1 *681:2 0.1
2 *681:2 *681:3 0.08
3 *681:3 *681:4 213.33333333333334
4 *681:4 *681:5 0.08
5 *681:5 *681:6 906.6666666666667
6 *681:6 *681:7 0.1
7 *681:7 *681:8 13.333333333333334
8 *681:8 *681:9 0.1
9 *681:9 *681:10 106.66666666666667
10 *681:10 *681:11 0.08
11 *681:11 *681:12 128.0

*END

*D_NET *682 12.109462479999978

*CONN
*I *399:B I
*I *353:Y O

*CAP
1 *399:B 0.0129035
2 *353:Y 0.0
3 *682:3 0.06570000000000001
4 *682:4 0.24086399999999997
5 *682:5 0.01314

*RES
1 *682:1 *682:2 0.1
2 *682:2 *682:3 266.6666666666667
3 *682:3 *682:4 0.08
4 *682:4 *682:5 1109.3333333333335
5 *682:5 *682:6 0.08
6 *682:6 *682:7 53.333333333333336
7 *682:7 *682:8 0.1

*END

*D_NET *683 12.49460768999998

*CONN
*I *578:A I
*I *399:Y O

*CAP
1 *578:A 0.00933171
2 *399:Y 0.0
3 *683:3 0.17082
4 *683:4 0.018528
5 *683:5 0.17082
6 *683:6 0.002742

*RES
1 *683:1 *683:2 0.1
2 *683:2 *683:3 693.3333333333334
3 *683:3 *683:4 0.08
4 *683:4 *683:5 85.33333333333334
5 *683:5 *683:6 0.08
6 *683:6 *683:7 693.3333333333334
7 *683:7 *683:8 0.1
8 *683:8 *683:9 8.0

*END

*D_NET *684 12.651514999999979

*CONN
*I *306:B I
*I *302:Y O
*I *305:B I

*CAP
1 *306:B 0.0182038
2 *302:Y 0.0