*SPEF "IEEE 1481-1998" 
*DESIGN "spi_master"
*DATE "Mon Dec 16 23:33:26 2019"
*VENDOR "ISPD 2013 Contest"
*PROGRAM "Benchmark Parasitic Generator"
*VERSION "0.0"
*DESIGN_FLOW "NETLIST_TYPE_VERILOG"
*DIVIDER /
*DELIMITER :
*BUS_DELIMITER []
*T_UNIT 1 PS
*C_UNIT 1 FF
*R_UNIT 1 KOHM
*L_UNIT 1 UH

*NAME_MAP

*1 NAND2X1_10
*2 OAI21X1_8
*3 DFFSR_1
*4 FILL_0_0_0
*5 FILL_0_0_1
*6 FILL_0_0_2
*7 NAND2X1_1
*8 OAI21X1_1
*9 BUFX4_1
*10 DFFSR_12
*11 INVX1_7
*12 NOR2X1_3
*13 FILL_0_1_0
*14 FILL_0_1_1
*15 FILL_0_1_2
*16 DFFSR_9
*17 BUFX2_3
*18 FILL_1_1
*19 FILL_1_2
*20 MUX2X1_5
*21 OAI21X1_9
*22 MUX2X1_6
*23 FILL_1_0_0
*24 FILL_1_0_1
*25 FILL_1_0_2
*26 DFFSR_2
*27 DFFSR_4
*28 FILL_1_1_0
*29 FILL_1_1_1
*30 FILL_1_1_2
*31 DFFSR_10
*32 NOR2X1_5
*33 INVX1_8
*34 OAI21X1_7
*35 BUFX2_5
*36 NAND2X1_11
*37 DFFSR_8
*38 FILL_2_0_0
*39 FILL_2_0_1
*40 FILL_2_0_2
*41 MUX2X1_7
*42 MUX2X1_8
*43 DFFSR_3
*44 INVX2_1
*45 NAND2X1_6
*46 INVX1_1
*47 FILL_2_1_0
*48 FILL_2_1_1
*49 FILL_2_1_2
*50 OAI21X1_6
*51 DFFSR_13
*52 FILL_3_1
*53 FILL_3_2
*54 BUFX2_1
*55 MUX2X1_3
*56 MUX2X1_4
*57 NOR2X1_1
*58 MUX2X1_2
*59 OAI21X1_10
*60 FILL_3_0_0
*61 FILL_3_0_1
*62 FILL_3_0_2
*63 MUX2X1_1
*64 OAI21X1_2
*65 BUFX4_2
*66 DFFSR_11
*67 NAND2X1_5
*68 FILL_3_1_0
*69 FILL_3_1_1
*70 FILL_3_1_2
*71 INVX1_6
*72 INVX1_3
*73 NAND3X1_2
*74 OAI22X1_1
*75 INVX1_5
*76 INVX1_2
*77 NOR2X1_4
*78 BUFX2_2
*79 BUFX2_4
*80 FILL_4_1
*81 NAND2X1_4
*82 OAI21X1_4
*83 DFFSR_7
*84 FILL_4_0_0
*85 FILL_4_0_1
*86 FILL_4_0_2
*87 DFFSR_5
*88 DFFSR_16
*89 FILL_4_1_0
*90 FILL_4_1_1
*91 FILL_4_1_2
*92 NAND3X1_1
*93 NAND2X1_9
*94 NAND2X1_8
*95 INVX1_4
*96 OAI21X1_5
*97 NOR2X1_2
*98 FILL_5_1
*99 FILL_5_2
*100 DFFSR_6
*101 OAI21X1_3
*102 FILL_5_0_0
*103 FILL_5_0_1
*104 FILL_5_0_2
*105 NAND2X1_3
*106 NAND2X1_12
*107 NAND2X1_2
*108 INVX4_1
*109 INVX4_2
*110 DFFSR_14
*111 NAND2X1_7
*112 FILL_5_1_0
*113 FILL_5_1_1
*114 FILL_5_1_2
*115 NAND3X1_3
*116 DFFSR_15
*117 FILL_6_1
*118 FILL_6_2
*119 load
*120 data_in<3>
*121 _41_
*122 _40_
*123 _27_
*124 shift.data<3>
*125 shift.data<4>
*126 shift_en
*127 _42_
*128 data_in<4>
*129 _43_
*130 _28_
*131 shift.data<5>
*132 _44_
*133 data_in<5>
*134 _45_
*135 _29_
*136 shift.data<6>
*137 _46_
*138 data_in<6>
*139 _47_
*140 _30_
*141 _0_
*142 _48_
*143 _33_
*144 clk
*145 _36_
*146 rst
*147 _38_
*148 _49_
*149 shift.data<0>
*150 vdd
*151 _25_
*152 shift.data<1>
*153 _26_
*154 shift.data<2>
*155 MOSI
*156 _1_
*157 SCLK
*158 _2_
*159 SS
*160 _3_
*161 done
*162 ctrl.cstate<1>
*163 _5_
*164 ctrl.count<0>
*165 ctrl.count<1>
*166 ctrl.count<2>
*167 _6_
*168 ctrl.clk_en
*169 _7_
*170 _22_
*171 _8_
*172 ctrl.cstate<4>
*173 _9_
*174 send
*175 _23_<4>
*176 _4_<0>
*177 _11_
*178 _13_
*179 _15_
*180 _4_<1>
*181 _16_
*182 _17_
*183 _18_
*184 _4_<2>
*185 ctrl.cstate<3>
*186 _19_
*187 _14_
*188 ctrl.cstate<0>
*189 _20_
*190 _10_
*191 _21_
*192 _12_
*193 _24_
*194 MISO
*195 _31_
*196 data_in<0>
*197 _32_
*198 _34_
*199 data_in<1>
*200 _35_
*201 _37_
*202 data_in<2>
*203 _39_

*D_NET *119 2.2524728

*CONN
*I *59:A I
*I *106:A I
*I *21:A I
*I *36:A I
*I *2:A I
*I *1:B I
*I *9:Y O
*I *57:A I
*I *82:A I
*I *81:A I
*I *101:A I
*I *105:A I
*I *64:A I
*I *107:A I
*I *8:A I
*I *7:A I

*CAP
1 *59:A 0.017346
2 *106:A 0.0125
3 *21:A 0.017346
4 *36:A 0.0125
5 *2:A 0.017346
6 *1:B 0.0129035
7 *9:Y 0.0
8 *57:A 0.0144193
9 *82:A 0.017346
10 *81:A 0.0125
11 *101:A 0.017346
12 *105:A 0.0125
13 *64:A 0.017346
14 *107:A 0.0125
15 *8:A 0.017346
16 *7:A 0.0125
17 *119:17 0.055583999999999995
18 *119:18 0.029248000000000003
19 *119:19 0.3285
20 *119:20 0.148224
21 *119:21 0.01314
22 *119:22 0.064848
23 *119:23 0.26280000000000003
24 *119:24 0.014624000000000002
25 *119:25 0.04631999999999999
26 *119:26 0.064848
27 *119:27 0.09198
28 *119:28 0.148224
29 *119:29 0.037056
30 *119:30 0.014624000000000002
31 *119:31 0.26280000000000003
32 *119:32 0.28908
33 *119:33 0.01314
34 *119:34 0.037056
35 *119:35 0.07884000000000001
36 *119:36 0.027791999999999997

*RES
1 *119:1 *119:2 0.1
2 *119:2 *119:3 0.08
3 *119:3 *119:4 256.0
4 *119:4 *119:5 0.08
5 *119:5 *119:6 0.1
6 *119:6 *119:7 85.33333333333334
7 *119:7 *119:8 0.1
8 *119:8 *119:9 1333.3333333333335
9 *119:9 *119:10 0.1
10 *119:10 *119:11 0.1
11 *119:11 *119:12 0.08
12 *119:12 *119:13 682.6666666666667
13 *119:13 *119:14 0.08
14 *119:14 *119:15 0.1
15 *119:15 *119:16 53.333333333333336
16 *119:16 *119:17 0.08
17 *119:17 *119:18 298.6666666666667
18 *119:18 *119:19 0.1
19 *119:19 *119:20 1066.6666666666667
20 *119:20 *119:21 0.08
21 *119:21 *119:22 42.66666666666667
22 *119:22 *119:23 0.1
23 *119:23 *119:24 0.08
24 *119:24 *119:25 213.33333333333334
25 *119:25 *119:26 0.08
26 *119:26 *119:27 0.1
27 *119:27 *119:28 0.08
28 *119:28 *119:29 298.6666666666667
29 *119:29 *119:30 0.1
30 *119:30 *119:31 373.33333333333337
31 *119:31 *119:32 0.08
32 *119:32 *119:33 682.6666666666667
33 *119:33 *119:34 0.1
34 *119:34 *119:35 0.08
35 *119:35 *119:36 170.66666666666669
36 *119:36 *119:37 0.08
37 *119:37 *119:38 42.66666666666667
38 *119:38 *119:39 0.1
39 *119:39 *119:40 1066.6666666666667
40 *119:40 *119:41 0.08
41 *119:41 *119:42 0.1
42 *119:42 *119:43 1173.3333333333335
43 *119:43 *119:44 0.1
44 *119:44 *119:45 0.1
45 *119:45 *119:46 53.333333333333336
46 *119:46 *119:47 0.08
47 *119:47 *119:48 170.66666666666669
48 *119:48 *119:49 0.08
49 *119:49 *119:50 0.1
50 *119:50 *119:51 320.0
51 *119:51 *119:52 0.08
52 *119:52 *119:53 128.0

*END

*D_NET *120 2.5871964000000003

*CONN
*P *120 I
*I *7:B I

*CAP
1 *7:B 0.0129035
2 *120:2 0.0262143
3 *120:3 0.027791999999999997
4 *120:4 0.039420000000000004
5 *120:5 0.00457

*RES
1 *120:1 *120:2 106.4
2 *120:2 *120:3 0.08
3 *120:3 *120:4 128.0
4 *120:4 *120:5 0.08
5 *120:5 *120:6 160.0
6 *120:6 *120:7 0.1
7 *120:7 *120:8 13.333333333333334

*END

*D_NET *121 2.6605417000000005

*CONN
*I *8:C I
*I *7:Y O

*CAP
1 *8:C 0.0129138
2 *7:Y 0.0
3 *121:3 0.01828
4 *121:4 0.029248000000000003

*RES
1 *121:1 *121:2 53.333333333333336
2 *121:2 *121:3 85.33333333333334

*END

*D_NET *122 2.901899300000001

*CONN
*I *42:Y O
*I *8:B I

*CAP
1 *42:Y 0.0
2 *8:B 0.0182038
3 *122:3 0.21024

*RES
1 *122:1 *122:2 0.1
2 *122:2 *122:3 853.3333333333334
3 *122:3 *122:4 0.1

*END

*D_NET *123 3.188244050000001

*CONN
*I *27:D I
*I *8:Y O

*CAP
1 *27:D 0.00940895
2 *8:Y 0.0
3 *123:3 0.16675199999999998
4 *123:4 0.09198

*RES
1 *123:1 *123:2 0.1
2 *123:2 *123:3 0.08
3 *123:3 *123:4 768.0
4 *123:4 *123:5 0.08
5 *123:5 *123:6 373.33333333333337
6 *123:6 *123:7 0.1

*END

*D_NET *124 3.523312200000001

*CONN
*I *42:B I
*I *27:Q O
*I *63:A I

*CAP
1 *42:B 0.0173537
2 *27:Q 0.0
3 *63:A 0.0173455
4 *124:4 0.010512
5 *124:5 0.11826
6 *124:6 0.014624000000000002
7 *124:7 0.01314
8 *124:8 0.055583999999999995
9 *124:9 0.07884000000000001

*RES
1 *124:1 *124:2 0.1
2 *124:2 *124:3 42.66666666666667
3 *124:3 *124:4 480.0
4 *124:4 *124:5 0.1
5 *124:5 *124:6 42.66666666666667
6 *124:6 *124:7 0.1
7 *124:7 *124:8 53.333333333333336
8 *124:8 *124:9 0.08
9 *124:9 *124:10 256.0
10 *124:10 *124:11 0.08
11 *124:11 *124:12 320.0

*END

*D_NET *125 3.8182346000000003

*CONN
*I *87:Q O
*I *58:A I
*I *63:B I

*CAP
1 *87:Q 0.0
2 *58:A 0.0173455
3 *63:B 0.0173537
4 *125:4 0.014624000000000002
5 *125:5 0.11826
6 *125:6 0.09263999999999999

*RES
1 *125:1 *125:2 42.66666666666667
2 *125:2 *125:3 0.1
3 *125:3 *125:4 480.0
4 *125:4 *125:5 0.1
5 *125:5 *125:6 0.1
6 *125:6 *125:7 0.08
7 *125:7 *125:8 426.6666666666667
8 *125:8 *125:9 0.08

*END

*D_NET *126 4.9539354000000015

*CONN
*I *42:S I
*I *41:S I
*I *22:S I
*I *20:S I
*I *65:Y O
*I *56:S I
*I *55:S I
*I *58:S I
*I *63:S I

*CAP
1 *42:S 0.0204132
2 *41:S 0.0204132
3 *22:S 0.0204132
4 *20:S 0.0204132
5 *65:Y 0.0
6 *56:S 0.0204132
7 *55:S 0.0204132
8 *58:S 0.0204132
9 *63:S 0.0204132
10 *126:10 0.01314
11 *126:11 0.018528
12 *126:12 0.10512
13 *126:13 0.014624000000000002
14 *126:14 0.06570000000000001
15 *126:15 0.08337599999999999
16 *126:16 0.02628
17 *126:17 0.12043199999999998
18 *126:18 0.02628
19 *126:19 0.08337599999999999
20 *126:20 0.014624000000000002
21 *126:21 0.23652
22 *126:22 0.037056
23 *126:23 0.09263999999999999

*RES
1 *126:1 *126:2 0.1
2 *126:2 *126:3 53.333333333333336
3 *126:3 *126:4 0.08
4 *126:4 *126:5 85.33333333333334
5 *126:5 *126:6 0.08
6 *126:6 *126:7 426.6666666666667
7 *126:7 *126:8 0.1
8 *126:8 *126:9 42.66666666666667
9 *126:9 *126:10 0.1
10 *126:10 *126:11 266.6666666666667
11 *126:11 *126:12 0.08
12 *126:12 *126:13 384.0
13 *126:13 *126:14 0.1
14 *126:14 *126:15 106.66666666666667
15 *126:15 *126:16 0.08
16 *126:16 *126:17 554.6666666666667
17 *126:17 *126:18 0.08
18 *126:18 *126:19 0.1
19 *126:19 *126:20 106.66666666666667
20 *126:20 *126:21 0.08
21 *126:21 *126:22 384.0
22 *126:22 *126:23 42.66666666666667
23 *126:23 *126:24 0.1
24 *126:24 *126:25 960.0
25 *126:25 *126:26 0.08
26 *126:26 *126:27 170.66666666666669
27 *126:27 *126:28 0.1
28 *126:28 *126:29 0.08
29 *126:29 *126:30 426.6666666666667
30 *126:30 *126:31 0.08

*END

*D_NET *127 5.1856408000000025

*CONN
*I *64:B I
*I *63:Y O

*CAP
1 *64:B 0.0182038
2 *63:Y 0.0
3 *127:3 0.037056
4 *127:4 0.01314

*RES
1 *127:1 *127:2 0.1
2 *127:2 *127:3 0.08
3 *127:3 *127:4 170.66666666666669
4 *127:4 *127:5 0.08
5 *127:5 *127:6 53.333333333333336
6 *127:6 *127:7 0.1

*END

*D_NET *128 5.314889100000003

*CONN
*P *128 I
*I *107:B I

*CAP
1 *107:B 0.0129035
2 *128:2 0.06570000000000001
3 *128:3 0.027791999999999997
4 *128:4 0.00457

*RES
1 *128:1 *128:2 266.6666666666667
2 *128:2 *128:3 0.08
3 *128:3 *128:4 128.0
4 *128:4 *128:5 0.08
5 *128:5 *128:6 0.1
6 *128:6 *128:7 13.333333333333334

*END

*D_NET *129 5.550946400000003

*CONN
*I *64:C I
*I *107:Y O

*CAP
1 *64:C 0.0129138
2 *107:Y 0.0
3 *129:3 0.21024

*RES
1 *129:1 *129:2 0.1
2 *129:2 *129:3 853.3333333333334
3 *129:3 *129:4 0.1

*END

*D_NET *130 5.736715150000001

*CONN
*I *87:D I
*I *64:Y O

*CAP
1 *87:D 0.00940895
2 *64:Y 0.0
3 *130:3 0.07884000000000001
4 *130:4 0.055583999999999995
5 *130:5 0.02628
6 *130:6 0.002742

*RES
1 *130:1 *130:2 0.1
2 *130:2 *130:3 320.0
3 *130:3 *130:4 0.08
4 *130:4 *130:5 256.0
5 *130:5 *130:6 0.08
6 *130:6 *130:7 106.66666666666667
7 *130:7 *130:8 0.1
8 *130:8 *130:9 8.0

*END

*D_NET *131 6.170955300000001

*CONN
*I *100:Q O
*I *55:A I
*I *58:B I

*CAP
1 *100:Q 0.0
2 *55:A 0.0173455
3 *58:B 0.0173537
4 *131:4 0.13896
5 *131:5 0.22338000000000002
6 *131:6 0.027791999999999997

*RES
1 *131:1 *131:2 0.1
2 *131:2 *131:3 0.08
3 *131:3 *131:4 640.0
4 *131:4 *131:5 0.08
5 *131:5 *131:6 0.1
6 *131:6 *131:7 0.1
7 *131:7 *131:8 906.6666666666667
8 *131:8 *131:9 0.08
9 *131:9 *131:10 128.0

*END

*D_NET *132 6.424492300000002

*CONN
*I *101:B I
*I *58:Y O

*CAP
1 *101:B 0.0182038
2 *58:Y 0.0
3 *132:3 0.009264
4 *132:4 0.07812000000000001
5 *132:5 0.018528
6 *132:6 0.09198
7 *132:7 0.002742

*RES
1 *132:1 *132:2 0.1
2 *132:2 *132:3 0.08
3 *132:3 *132:4 42.66666666666667
4 *132:4 *132:5 0.06
5 *132:5 *132:6 420.00000000000006
6 *132:6 *132:7 0.06
7 *132:7 *132:8 85.33333333333334
8 *132:8 *132:9 0.08
9 *132:9 *132:10 373.33333333333337
10 *132:10 *132:11 0.1
11 *132:11 *132:12 8.0

*END

*D_NET *133 6.554988600000002

*CONN
*P *133 I
*I *105:B I

*CAP
1 *105:B 0.0129035
2 *133:2 0.010512
3 *133:3 0.05256
4 *133:4 0.018528
5 *133:5 0.01314
6 *133:6 0.00457

*RES
1 *133:1 *133:2 42.66666666666667
2 *133:2 *133:3 213.33333333333334
3 *133:3 *133:4 0.08
4 *133:4 *133:5 85.33333333333334
5 *133:5 *133:6 0.08
6 *133:6 *133:7 53.333333333333336
7 *133:7 *133:8 0.1
8 *133:8 *133:9 13.333333333333334

*END

*D_NET *134 6.653925900000003

*CONN
*I *101:C I
*I *105:Y O

*CAP
1 *101:C 0.0129138
2 *105:Y 0.0
3 *134:3 0.07312

*RES
1 *134:1 *134:2 213.33333333333334

*END

*D_NET *135 6.803394650000002

*CONN
*I *100:D I
*I *101:Y O

*CAP
1 *100:D 0.00940895
2 *101:Y 0.0
3 *135:3 0.02628
4 *135:4 0.09263999999999999
5 *135:5 0.008226

*RES
1 *135:1 *135:2 0.1
2 *135:2 *135:3 106.66666666666667
3 *135:3 *135:4 0.08
4 *135:4 *135:5 426.6666666666667
5 *135:5 *135:6 0.08
6 *135:6 *135:7 0.1
7 *135:7 *135:8 24.0

*END

*D_NET *136 7.049110800000003

*CONN
*I *83:Q O
*I *56:A I
*I *55:B I

*CAP
1 *83:Q 0.0
2 *56:A 0.0173455
3 *55:B 0.0173537
4 *136:4 0.014624000000000002
5 *136:5 0.11826
6 *136:6 0.01314
7 *136:7 0.055583999999999995

*RES
1 *136:1 *136:2 42.66666666666667
2 *136:2 *136:3 0.1
3 *136:3 *136:4 480.0
4 *136:4 *136:5 0.1
5 *136:5 *136:6 0.1
6 *136:6 *136:7 53.333333333333336
7 *136:7 *136:8 0.08
8 *136:8 *136:9 256.0
9 *136:9 *136:10 0.08

*END

*D_NET *137 7.193993800000004

*CONN
*I *82:B I
*I *55:Y O

*CAP
1 *82:B 0.0182038
2 *55:Y 0.0
3 *137:3 0.09198

*RES
1 *137:1 *137:2 0.1
2 *137:2 *137:3 373.33333333333337
3 *137:3 *137:4 0.1

*END

*D_NET *138 7.243638200000004

*CONN
*P *138 I
*I *81:B I

*CAP
1 *81:B 0.0129035
2 *138:2 0.0184701

*RES
1 *138:1 *138:2 85.06666666666666
2 *138:2 *138:3 0.08
3 *138:3 *138:4 0.1

*END

*D_NET *139 7.298703500000004

*CONN
*I *82:C I
*I *81:Y O

*CAP
1 *82:C 0.0129138
2 *81:Y 0.0
3 *139:3 0.029248000000000003

*RES
1 *139:1 *139:2 85.33333333333334

*END

*D_NET *140 7.495530250000003

*CONN
*I *83:D I
*I *82:Y O

*CAP
1 *83:D 0.00940895
2 *82:Y 0.0
3 *140:3 0.01314
4 *140:4 0.148224
5 *140:5 0.01314

*RES
1 *140:1 *140:2 0.1
2 *140:2 *140:3 53.333333333333336
3 *140:3 *140:4 0.08
4 *140:4 *140:5 682.6666666666667
5 *140:5 *140:6 0.08
6 *140:6 *140:7 53.333333333333336
7 *140:7 *140:8 0.1

*END

*D_NET *141 7.697716610000003

*CONN
*I *54:A I
*I *37:Q O
*I *56:B I

*CAP
1 *54:A 0.00933171
2 *37:Q 0.0
3 *56:B 0.0173537
4 *141:4 0.01314
5 *141:5 0.074112
6 *141:6 0.01314
7 *141:7 0.06570000000000001

*RES
1 *141:1 *141:2 0.1
2 *141:2 *141:3 53.333333333333336
3 *141:3 *141:4 0.08
4 *141:4 *141:5 341.33333333333337
5 *141:5 *141:6 0.08
6 *141:6 *141:7 53.333333333333336
7 *141:7 *141:8 0.1
8 *141:8 *141:9 0.1
9 *141:9 *141:10 266.6666666666667
10 *141:10 *141:11 0.08

*END

*D_NET *142 7.7869943200000025

*CONN
*I *57:B I
*I *56:Y O

*CAP
1 *57:B 0.0150643
2 *56:Y 0.0
3 *142:3 0.01828
4 *142:4 0.029248000000000003

*RES
1 *142:1 *142:2 53.333333333333336
2 *142:2 *142:3 85.33333333333334

*END

*D_NET *143 7.877167570000002

*CONN
*I *37:D I
*I *57:Y O

*CAP
1 *37:D 0.00940895
2 *57:Y 0.0
3 *143:3 0.06570000000000001

*RES
1 *143:1 *143:2 0.1
2 *143:2 *143:3 266.6666666666667
3 *143:3 *143:4 0.1

*END

*D_NET *144 9.033622630000002

*CONN
*P *144 I
*I *51:CLK I
*I *10:CLK I
*I *66:CLK I
*I *31:CLK I
*I *16:CLK I
*I *71:A I
*I *44:A I

*CAP
1 *51:CLK 0.00937511
2 *10:CLK 0.00937511
3 *66:CLK 0.00937511
4 *31:CLK 0.00937511
5 *16:CLK 0.00937511
6 *71:A 0.00932456
7 *44:A 0.0186567
8 *144:8 0.064848
9 *144:9 0.07884000000000001
10 *144:10 0.101904
11 *144:11 0.11116799999999999
12 *144:12 0.06570000000000001
13 *144:13 0.1971
14 *144:14 0.055583999999999995
15 *144:15 0.06570000000000001
16 *144:16 0.21307199999999998
17 *144:17 0.1181943

*RES
1 *144:1 *144:2 0.1
2 *144:2 *144:3 0.08
3 *144:3 *144:4 298.6666666666667
4 *144:4 *144:5 0.08
5 *144:5 *144:6 320.0
6 *144:6 *144:7 0.1
7 *144:7 *144:8 0.1
8 *144:8 *144:9 0.08
9 *144:9 *144:10 469.33333333333337
10 *144:10 *144:11 0.1
11 *144:11 *144:12 0.08
12 *144:12 *144:13 512.0
13 *144:13 *144:14 0.08
14 *144:14 *144:15 266.6666666666667
15 *144:15 *144:16 0.1
16 *144:16 *144:17 800.0
17 *144:17 *144:18 0.08
18 *144:18 *144:19 0.1
19 *144:19 *144:20 0.08
20 *144:20 *144:21 256.0
21 *144:21 *144:22 0.08
22 *144:22 *144:23 266.6666666666667
23 *144:23 *144:24 0.1
24 *144:24 *144:25 0.08
25 *144:25 *144:26 981.3333333333335
26 *144:26 *144:27 479.7333333333334

*END

*D_NET *145 10.930068320000004

*CONN
*I *37:CLK I
*I *83:CLK I
*I *100:CLK I
*I *87:CLK I
*I *27:CLK I
*I *43:CLK I
*I *26:CLK I
*I *3:CLK I
*I *44:Y O

*CAP
1 *37:CLK 0.00937511
2 *83:CLK 0.00937511
3 *100:CLK 0.00937511
4 *87:CLK 0.00937511
5 *27:CLK 0.00937511
6 *43:CLK 0.00937511
7 *26:CLK 0.00937511
8 *3:CLK 0.00937511
9 *44:Y 0.0
10 *145:10 0.101904
11 *145:11 0.07884000000000001
12 *145:12 0.010512
13 *145:13 0.11826
14 *145:14 0.203808
15 *145:15 0.06570000000000001
16 *145:16 0.11116799999999999
17 *145:17 0.14454
18 *145:18 0.037056
19 *145:19 0.05256
20 *145:20 0.26280000000000003
21 *145:21 0.074112
22 *145:22 0.09198
23 *145:23 0.037056
24 *145:24 0.17082
25 *145:25 0.15768000000000001
26 *145:26 0.027791999999999997

*RES
1 *145:1 *145:2 0.1
2 *145:2 *145:3 0.08
3 *145:3 *145:4 469.33333333333337
4 *145:4 *145:5 0.08
5 *145:5 *145:6 0.1
6 *145:6 *145:7 0.1
7 *145:7 *145:8 320.0
8 *145:8 *145:9 42.66666666666667
9 *145:9 *145:10 480.0
10 *145:10 *145:11 0.1
11 *145:11 *145:12 0.08
12 *145:12 *145:13 938.6666666666667
13 *145:13 *145:14 0.08
14 *145:14 *145:15 0.1
15 *145:15 *145:16 266.6666666666667
16 *145:16 *145:17 0.08
17 *145:17 *145:18 512.0
18 *145:18 *145:19 0.1
19 *145:19 *145:20 586.6666666666667
20 *145:20 *145:21 0.08
21 *145:21 *145:22 170.66666666666669
22 *145:22 *145:23 0.08
23 *145:23 *145:24 213.33333333333334
24 *145:24 *145:25 0.1
25 *145:25 *145:26 1066.6666666666667
26 *145:26 *145:27 0.08
27 *145:27 *145:28 341.33333333333337
28 *145:28 *145:29 0.1
29 *145:29 *145:30 373.33333333333337
30 *145:30 *145:31 0.08
31 *145:31 *145:32 170.66666666666669
32 *145:32 *145:33 0.08
33 *145:33 *145:34 693.3333333333334
34 *145:34 *145:35 0.1
35 *145:35 *145:36 640.0
36 *145:36 *145:37 0.08
37 *145:37 *145:38 128.0

*END

*D_NET *146 11.218047000000007

*CONN
*P *146 I
*I *109:A I
*I *108:A I

*CAP
1 *109:A 0.0373134
2 *108:A 0.0373134
3 *146:3 0.014624000000000002
4 *146:4 0.05256
5 *146:5 0.018528
6 *146:6 0.05256

*RES
1 *146:1 *146:2 42.66666666666667
2 *146:2 *146:3 213.33333333333334
3 *146:3 *146:4 0.08
4 *146:4 *146:5 85.33333333333334
5 *146:5 *146:6 0.08
6 *146:6 *146:7 213.33333333333334
7 *146:7 *146:8 0.1

*END

*D_NET *147 12.739274200000004

*CONN
*I *37:R I
*I *83:R I
*I *100:R I
*I *87:R I
*I *27:R I
*I *43:R I
*I *26:R I
*I *3:R I
*I *108:Y O

*CAP
1 *37:R 0.0255048
2 *83:R 0.0255048
3 *100:R 0.0255048
4 *87:R 0.0255048
5 *27:R 0.0255048
6 *43:R 0.0255048
7 *26:R 0.0255048
8 *3:R 0.0255048
9 *108:Y 0.0
10 *147:10 0.10512
11 *147:11 0.014624000000000002
12 *147:12 0.11116799999999999
13 *147:13 0.02628
14 *147:14 0.064848
15 *147:15 0.09198
16 *147:16 0.21024
17 *147:17 0.04631999999999999
18 *147:18 0.05256
19 *147:19 0.037056
20 *147:20 0.14454
21 *147:21 0.11826
22 *147:22 0.074112
23 *147:23 0.0009140000000000001
24 *147:24 0.14454

*RES
1 *147:1 *147:2 0.1
2 *147:2 *147:3 426.6666666666667
3 *147:3 *147:4 0.1
4 *147:4 *147:5 42.66666666666667
5 *147:5 *147:6 0.1
6 *147:6 *147:7 0.08
7 *147:7 *147:8 512.0
8 *147:8 *147:9 0.08
9 *147:9 *147:10 0.1
10 *147:10 *147:11 106.66666666666667
11 *147:11 *147:12 0.08
12 *147:12 *147:13 298.6666666666667
13 *147:13 *147:14 0.08
14 *147:14 *147:15 373.33333333333337
15 *147:15 *147:16 0.1
16 *147:16 *147:17 853.3333333333334
17 *147:17 *147:18 0.08
18 *147:18 *147:19 213.33333333333334
19 *147:19 *147:20 0.08
20 *147:20 *147:21 213.33333333333334
21 *147:21 *147:22 0.1
22 *147:22 *147:23 0.08
23 *147:23 *147:24 170.66666666666669
24 *147:24 *147:25 0.08
25 *147:25 *147:26 586.6666666666667
26 *147:26 *147:27 0.1
27 *147:27 *147:28 480.0
28 *147:28 *147:29 0.1
29 *147:29 *147:30 0.08
30 *147:30 *147:31 341.33333333333337
31 *147:31 *147:32 0.08
32 *147:32 *147:33 0.1
33 *147:33 *147:34 2.666666666666667
34 *147:34 *147:35 0.1
35 *147:35 *147:36 586.6666666666667
36 *147:36 *147:37 0.1

*END

*D_NET *148 13.114085550000006

*CONN
*I *2:Y O
*I *3:D I

*CAP
1 *2:Y 0.0
2 *3:D 0.00940895
3 *148:3 0.148224
4 *148:4 0.01314

*RES
1 *148:1 *148:2 0.1
2 *148:2 *148:3 0.08
3 *148:3 *148:4 682.6666666666667
4 *148:4 *148:5 0.08
5 *148:5 *148:6 53.333333333333336
6 *148:6 *148:7 0.1

*END

*D_NET *149 13.367581700000002

*CONN
*I *22:A I
*I *20:B I
*I *3:Q O

*CAP
1 *22:A 0.0173455
2 *20:B 0.0173537
3 *3:Q 0.0
4 *149:4 0.06570000000000001
5 *149:5 0.027791999999999997
6 *149:6 0.01314
7 *149:7 0.06570000000000001
8 *149:8 0.037056

*RES
1 *149:1 *149:2 0.1
2 *149:2 *149:3 266.6666666666667
3 *149:3 *149:4 0.08
4 *149:4 *149:5 128.0
5 *149:5 *149:6 0.08
6 *149:6 *149:7 53.333333333333336
7 *149:7 *149:8 0.1
8 *149:8 *149:9 0.1
9 *149:9 *149:10 266.6666666666667
10 *149:10 *149:11 0.08
11 *149:11 *149:12 170.66666666666669

*END

*D_NET *150 14.406540300000007

*CONN
*P *150 I
*I *88:R I
*I *116:R I
*I *110:R I
*I *51:S I
*I *10:S I
*I *66:S I
*I *31:S I
*I *16:R I
*I *37:S I
*I *83:S I
*I *100:S I
*I *87:S I
*I *27:S I
*I *43:S I
*I *26:S I
*I *3:S I

*CAP
1 *88:R 0.0255048
2 *116:R 0.0255048
3 *110:R 0.0255048
4 *51:S 0.0230606
5 *10:S 0.0230606
6 *66:S 0.0230606
7 *31:S 0.0230606
8 *16:R 0.0255048
9 *37:S 0.0230606
10 *83:S 0.0230606
11 *100:S 0.0230606
12 *87:S 0.0230606
13 *27:S 0.0230606
14 *43:S 0.0230606
15 *26:S 0.0230606
16 *3:S 0.0230606
17 *150:17 0.039420000000000004
18 *150:18 0.002628
19 *150:19 0.039420000000000004
20 *150:20 0.002628
21 *150:21 0.039420000000000004
22 *150:22 0.002628
23 *150:23 0.039420000000000004
24 *150:24 0.039420000000000004
25 *150:25 0.002628
26 *150:26 0.039420000000000004
27 *150:27 0.039420000000000004
28 *150:28 0.002628
29 *150:29 0.039420000000000004
30 *150:30 0.002628
31 *150:31 0.039420000000000004
32 *150:32 0.039420000000000004
33 *150:33 0.039420000000000004
34 *150:34 0.02628
35 *150:35 0.002628
36 *150:36 0.02628
37 *150:37 0.002628
38 *150:38 0.039420000000000004
39 *150:39 0.039420000000000004
40 *150:40 0.039420000000000004

*RES
1 *150:1 *150:2 0.1
2 *150:2 *150:3 160.0
3 *150:3 *150:4 10.666666666666668
4 *150:4 *150:5 0.1
5 *150:5 *150:6 0.1
6 *150:6 *150:7 160.0
7 *150:7 *150:8 10.666666666666668
8 *150:8 *150:9 0.1
9 *150:9 *150:10 0.1
10 *150:10 *150:11 160.0
11 *150:11 *150:12 10.666666666666668
12 *150:12 *150:13 0.1
13 *150:13 *150:14 0.1
14 *150:14 *150:15 160.0
15 *150:15 *150:16 0.1
16 *150:16 *150:17 0.1
17 *150:17 *150:18 160.0
18 *150:18 *150:19 10.666666666666668
19 *150:19 *150:20 0.1
20 *150:20 *150:21 0.1
21 *150:21 *150:22 160.0
22 *150:22 *150:23 0.1
23 *150:23 *150:24 0.1
24 *150:24 *150:25 160.0
25 *150:25 *150:26 10.666666666666668
26 *150:26 *150:27 0.1
27 *150:27 *150:28 0.1
28 *150:28 *150:29 160.0
29 *150:29 *150:30 10.666666666666668
30 *150:30 *150:31 0.1
31 *150:31 *150:32 0.1
32 *150:32 *150:33 160.0
33 *150:33 *150:34 0.1
34 *150:34 *150:35 0.1
35 *150:35 *150:36 160.0
36 *150:36 *150:37 0.1
37 *150:37 *150:38 0.1
38 *150:38 *150:39 160.0
39 *150:39 *150:40 0.1
40 *150:40 *150:41 0.1
41 *150:41 *150:42 106.66666666666667
42 *150:42 *150:43 10.666666666666668
43 *150:43 *150:44 0.1
44 *150:44 *150:45 0.1
45 *150:45 *150:46 106.66666666666667
46 *150:46 *150:47 10.666666666666668
47 *150:47 *150:48 0.1
48 *150:48 *150:49 0.1
49 *150:49 *150:50 160.0
50 *150:50 *150:51 0.1
51 *150:51 *150:52 0.1
52 *150:52 *150:53 160.0
53 *150:53 *150:54 0.1
54 *150:54 *150:55 0.1
55 *150:55 *150:56 160.0
56 *150:56 *150:57 0.1

*END

*D_NET *151 15.026295650000018

*CONN
*I *21:Y O
*I *26:D I

*CAP
1 *21:Y 0.0
2 *26:D 0.00940895
3 *151:3 0.2316

*RES
1 *151:1 *151:2 0.1
2 *151:2 *151:3 0.08
3 *151:3 *151:4 1066.6666666666667
4 *151:4 *151:5 0.08
5 *151:5 *151:6 0.1

*END

*D_NET *152 15.336837800000014

*CONN
*I *41:A I
*I *22:B I
*I *26:Q O

*CAP
1 *41:A 0.0173455
2 *22:B 0.0173537
3 *26:Q 0.0
4 *152:4 0.01314
5 *152:5 0.018528
6 *152:6 0.058496000000000006
7 *152:7 0.0009140000000000001
8 *152:8 0.09198
9 *152:9 0.08337599999999999

*RES
1 *152:1 *152:2 0.1
2 *152:2 *152:3 53.333333333333336
3 *152:3 *152:4 0.08
4 *152:4 *152:5 85.33333333333334
5 *152:5 *152:6 0.08
6 *152:6 *152:7 0.1
7 *152:7 *152:8 170.66666666666669
8 *152:8 *152:9 2.666666666666667
9 *152:9 *152:10 0.1
10 *152:10 *152:11 373.33333333333337
11 *152:11 *152:12 0.08
12 *152:12 *152:13 384.0
13 *152:13 *152:14 0.08
14 *152:14 *152:15 0.1

*END

*D_NET *153 15.687509950000011

*CONN
*I *59:Y O
*I *43:D I

*CAP
1 *59:Y 0.0
2 *43:D 0.00940895
3 *153:3 0.01314
4 *153:4 0.24086399999999997
5 *153:5 0.05256

*RES
1 *153:1 *153:2 0.1
2 *153:2 *153:3 53.333333333333336
3 *153:3 *153:4 0.08
4 *153:4 *153:5 1109.3333333333335
5 *153:5 *153:6 0.08
6 *153:6 *153:7 213.33333333333334
7 *153:7 *153:8 0.1

*END

*D_NET *154 15.83016010000001

*CONN
*I *42:A I
*I *41:B I
*I *43:Q O

*CAP
1 *42:A 0.0173455
2 *41:B 0.0173537
3 *43:Q 0.0
4 *154:4 0.042958
5 *154:5 0.055583999999999995

*RES
1 *154:1 *154:2 125.33333333333334
2 *154:2 *154:3 0.1
3 *154:3 *154:4 0.08
4 *154:4 *154:5 256.0
5 *154:5 *154:6 0.08
6 *154:6 *154:7 0.1

*END

*D_NET *155 15.896536400000008

*CONN
*P *155 O
*I *54:Y O

*CAP
1 *54:Y 0.0
2 *155:2 0.0184701
3 *155:3 0.01314

*RES
1 *155:1 *155:2 85.06666666666666
2 *155:2 *155:3 0.08
3 *155:3 *155:4 53.333333333333336
4 *155:4 *155:5 0.1

*END

*D_NET *156 15.942660110000007

*CONN
*I *77:Y O
*I *78:A I

*CAP
1 *77:Y 0.0
2 *78:A 0.00933171
3 *156:3 0.010512
4 *156:4 0.02628

*RES
1 *156:1 *156:2 0.1
2 *156:2 *156:3 42.66666666666667
3 *156:3 *156:4 106.66666666666667
4 *156:4 *156:5 0.1

*END

*D_NET *157 16.007642820000008

*CONN
*P *157 O
*I *78:Y O

*CAP
1 *78:Y 0.0
2 *157:2 0.055583999999999995

*RES
1 *157:1 *157:2 256.0
2 *157:2 *157:3 0.08
3 *157:3 *157:4 0.1

*END

*D_NET *158 16.436114530000008

*CONN
*I *50:Y O
*I *17:A I

*CAP
1 *50:Y 0.0
2 *17:A 0.00933171
3 *158:3 0.010512
4 *158:4 0.009264
5 *158:5 0.11284
6 *158:6 0.194544
7 *158:7 0.09198

*RES
1 *158:1 *158:2 0.1
2 *158:2 *158:3 42.66666666666667
3 *158:3 *158:4 0.08
4 *158:4 *158:5 42.66666666666667
5 *158:5 *158:6 0.06
6 *158:6 *158:7 606.6666666666667
7 *158:7 *158:8 0.06
8 *158:8 *158:9 896.0000000000001
9 *158:9 *158:10 0.08
10 *158:10 *158:11 373.33333333333337
11 *158:11 *158:12 0.1

*END

*D_NET *159 16.511789240000013

*CONN
*P *159 O
*I *17:Y O

*CAP
1 *17:Y 0.0
2 *159:2 0.009264
3 *159:3 0.01314
4 *159:4 0.043872

*RES
1 *159:1 *159:2 42.66666666666667
2 *159:2 *159:3 0.08
3 *159:3 *159:4 53.333333333333336
4 *159:4 *159:5 0.1
5 *159:5 *159:6 128.0

*END

*D_NET *160 16.759152950000015

*CONN
*I *35:Y O
*I *79:A I

*CAP
1 *35:Y 0.0
2 *79:A 0.00933171
3 *160:3 0.027791999999999997
4 *160:4 0.21024

*RES
1 *160:1 *160:2 0.1
2 *160:2 *160:3 0.08
3 *160:3 *160:4 128.0
4 *160:4 *160:5 0.08
5 *160:5 *160:6 853.3333333333334
6 *160:6 *160:7 0.1

*END

*D_NET *161 16.82020366000002

*CONN
*P *161 O
*I *79:Y O

*CAP
1 *79:Y 0.0
2 *161:2 0.009264
3 *161:3 0.01314
4 *161:4 0.029248000000000003

*RES
1 *161:1 *161:2 42.66666666666667
2 *161:2 *161:3 0.08
3 *161:3 *161:4 53.333333333333336
4 *161:4 *161:5 0.1
5 *161:5 *161:6 85.33333333333334

*END

*D_NET *162 17.06043822000002

*CONN
*I *31:Q O
*I *50:A I
*I *46:A I

*CAP
1 *31:Q 0.0
2 *50:A 0.017346
3 *46:A 0.00932456
4 *162:4 0.014624000000000002
5 *162:5 0.01828
6 *162:6 0.043872
7 *162:7 0.018528
8 *162:8 0.11826

*RES
1 *162:1 *162:2 42.66666666666667
2 *162:2 *162:3 53.333333333333336
3 *162:3 *162:4 128.0
4 *162:4 *162:5 0.1
5 *162:5 *162:6 0.08
6 *162:6 *162:7 85.33333333333334
7 *162:7 *162:8 0.08
8 *162:8 *162:9 480.0
9 *162:9 *162:10 0.1

*END

*D_NET *163 17.11423278000002

*CONN
*I *45:A I
*I *46:Y O

*CAP
1 *45:A 0.0125
2 *46:Y 0.0
3 *163:3 0.014624000000000002

*RES
1 *163:1 *163:2 42.66666666666667

*END

*D_NET *164 17.782915980000016

*CONN
*I *110:Q O
*I *73:A I
*I *97:A I
*I *94:A I
*I *111:B I
*I *92:A I

*CAP
1 *110:Q 0.0
2 *73:A 0.0158812
3 *97:A 0.0144193
4 *94:A 0.0125
5 *111:B 0.0129035
6 *92:A 0.0158812
7 *164:7 0.11826
8 *164:8 0.029248000000000003
9 *164:9 0.014624000000000002
10 *164:10 0.074112
11 *164:11 0.02628
12 *164:12 0.01314
13 *164:13 0.09263999999999999
14 *164:14 0.039420000000000004
15 *164:15 0.12043199999999998
16 *164:16 0.02628
17 *164:17 0.029248000000000003
18 *164:18 0.0009140000000000001

*RES
1 *164:1 *164:2 0.1
2 *164:2 *164:3 480.0
3 *164:3 *164:4 0.1
4 *164:4 *164:5 85.33333333333334
5 *164:5 *164:6 42.66666666666667
6 *164:6 *164:7 0.1
7 *164:7 *164:8 0.08
8 *164:8 *164:9 341.33333333333337
9 *164:9 *164:10 0.08
10 *164:10 *164:11 106.66666666666667
11 *164:11 *164:12 0.1
12 *164:12 *164:13 53.333333333333336
13 *164:13 *164:14 0.08
14 *164:14 *164:15 426.6666666666667
15 *164:15 *164:16 0.1
16 *164:16 *164:17 160.0
17 *164:17 *164:18 0.08
18 *164:18 *164:19 554.6666666666667
19 *164:19 *164:20 0.08
20 *164:20 *164:21 106.66666666666667
21 *164:21 *164:22 85.33333333333334
22 *164:22 *164:23 2.666666666666667

*END

*D_NET *165 18.355532380000017

*CONN
*I *116:Q O
*I *73:B I
*I *97:B I
*I *94:B I
*I *92:B I

*CAP
1 *116:Q 0.0
2 *73:B 0.0159247
3 *97:B 0.0150643
4 *94:B 0.0129035
5 *92:B 0.0159247
6 *165:6 0.064848
7 *165:7 0.01314
8 *165:8 0.0009140000000000001
9 *165:9 0.08337599999999999
10 *165:10 0.01314
11 *165:11 0.014624000000000002
12 *165:12 0.09198
13 *165:13 0.027791999999999997
14 *165:14 0.13140000000000002

*RES
1 *165:1 *165:2 0.1
2 *165:2 *165:3 0.08
3 *165:3 *165:4 298.6666666666667
4 *165:4 *165:5 0.08
5 *165:5 *165:6 53.333333333333336
6 *165:6 *165:7 0.1
7 *165:7 *165:8 2.666666666666667
8 *165:8 *165:9 0.1
9 *165:9 *165:10 0.08
10 *165:10 *165:11 384.0
11 *165:11 *165:12 0.08
12 *165:12 *165:13 53.333333333333336
13 *165:13 *165:14 42.66666666666667
14 *165:14 *165:15 0.1
15 *165:15 *165:16 373.33333333333337
16 *165:16 *165:17 0.1
17 *165:17 *165:18 0.08
18 *165:18 *165:19 128.0
19 *165:19 *165:20 0.08
20 *165:20 *165:21 533.3333333333334

*END

*D_NET *166 18.837176740000015

*CONN
*I *88:Q O
*I *75:A I
*I *93:A I
*I *92:C I

*CAP
1 *88:Q 0.0
2 *75:A 0.00932456
3 *93:A 0.0125
4 *92:C 0.0164926
5 *166:5 0.10236800000000001
6 *166:6 0.01314
7 *166:7 0.027791999999999997
8 *166:8 0.01314
9 *166:9 0.014624000000000002
10 *166:10 0.00457
11 *166:11 0.037056
12 *166:12 0.17082

*RES
1 *166:1 *166:2 298.6666666666667
2 *166:2 *166:3 0.1
3 *166:3 *166:4 53.333333333333336
4 *166:4 *166:5 0.08
5 *166:5 *166:6 128.0
6 *166:6 *166:7 0.08
7 *166:7 *166:8 53.333333333333336
8 *166:8 *166:9 0.1
9 *166:9 *166:10 42.66666666666667
10 *166:10 *166:11 13.333333333333334
11 *166:11 *166:12 0.1
12 *166:12 *166:13 0.08
13 *166:13 *166:14 170.66666666666669
14 *166:14 *166:15 0.08
15 *166:15 *166:16 693.3333333333334

*END

*D_NET *167 19.15112050000001

*CONN