*SPEF "IEEE 1481-1998" 
*DESIGN "uart"
*DATE "Mon Dec 16 23:35:57 2019"
*VENDOR "ISPD 2013 Contest"
*PROGRAM "Benchmark Parasitic Generator"
*VERSION "0.0"
*DESIGN_FLOW "NETLIST_TYPE_VERILOG"
*DIVIDER /
*DELIMITER :
*BUS_DELIMITER []
*T_UNIT 1 PS
*C_UNIT 1 FF
*R_UNIT 1 KOHM
*L_UNIT 1 UH

*NAME_MAP

*1 DFFPOSX1_61
*2 AOI21X1_28
*3 INVX1_44
*4 NAND2X1_31
*5 NAND2X1_32
*6 OAI21X1_60
*7 NOR2X1_34
*8 DFFPOSX1_63
*9 DFFPOSX1_60
*10 FILL_0_0_0
*11 FILL_0_0_1
*12 FILL_0_0_2
*13 DFFPOSX1_13
*14 OAI21X1_22
*15 AOI22X1_4
*16 AOI22X1_2
*17 OAI21X1_18
*18 DFFPOSX1_11
*19 BUFX2_13
*20 INVX1_12
*21 DFFPOSX1_7
*22 BUFX2_12
*23 AOI21X1_4
*24 OAI21X1_11
*25 FILL_0_1_0
*26 FILL_0_1_1
*27 FILL_0_1_2
*28 DFFPOSX1_8
*29 NAND2X1_10
*30 OAI21X1_14
*31 OAI21X1_13
*32 OAI21X1_12
*33 AND2X2_2
*34 NOR2X1_12
*35 NAND2X1_6
*36 XNOR2X1_3
*37 DFFPOSX1_10
*38 OAI21X1_10
*39 DFFPOSX1_62
*40 AOI21X1_29
*41 OAI21X1_59
*42 INVX1_43
*43 NOR2X1_10
*44 OAI21X1_58
*45 NOR2X1_33
*46 NOR2X1_9
*47 NAND2X1_5
*48 NOR2X1_11
*49 OAI21X1_57
*50 AOI21X1_27
*51 FILL_1_0_0
*52 FILL_1_0_1
*53 FILL_1_0_2
*54 DFFPOSX1_54
*55 OAI21X1_21
*56 AND2X2_8
*57 INVX1_45
*58 INVX1_6
*59 NAND3X1_4
*60 OAI21X1_17
*61 OAI21X1_62
*62 DFFPOSX1_1
*63 OAI21X1_61
*64 INVX1_46
*65 AND2X2_1
*66 NOR2X1_20
*67 OAI21X1_2
*68 INVX1_2
*69 OAI21X1_1
*70 INVX2_6
*71 NAND2X1_9
*72 AOI21X1_5
*73 FILL_1_1_0
*74 FILL_1_1_1
*75 FILL_1_1_2
*76 NOR2X1_21
*77 AOI22X1_1
*78 NAND3X1_2
*79 DFFPOSX1_9
*80 NAND2X1_11
*81 NOR2X1_13
*82 OAI21X1_16
*83 OAI22X1_5
*84 INVX1_4
*85 DFFPOSX1_6
*86 INVX2_2
*87 FILL_2_1
*88 BUFX4_6
*89 DFFPOSX1_59
*90 NOR2X1_7
*91 OAI21X1_56
*92 AOI21X1_26
*93 NOR2X1_8
*94 NAND3X1_14
*95 NAND2X1_4
*96 DFFPOSX1_57
*97 FILL_2_0_0
*98 FILL_2_0_1
*99 FILL_2_0_2
*100 DFFPOSX1_55
*101 OAI21X1_51
*102 OR2X2_5
*103 AOI21X1_21
*104 NAND3X1_5
*105 NAND3X1_3
*106 INVX1_5
*107 OAI21X1_19
*108 OAI21X1_20
*109 AOI22X1_3
*110 DFFPOSX1_12
*111 AOI22X1_9
*112 NAND3X1_1
*113 OAI21X1_32
*114 OAI21X1_31
*115 AOI21X1_1
*116 FILL_2_1_0
*117 FILL_2_1_1
*118 FILL_2_1_2
*119 DFFPOSX1_2
*120 INVX2_4
*121 NOR2X1_14
*122 NOR2X1_16
*123 OR2X2_1
*124 OAI21X1_5
*125 OAI22X1_2
*126 INVX2_1
*127 INVX1_3
*128 OAI21X1_15
*129 NAND2X1_1
*130 OAI22X1_4
*131 NOR2X1_1
*132 OAI21X1_9
*133 DFFPOSX1_58
*134 AOI21X1_25
*135 OR2X2_7
*136 OAI21X1_55
*137 OR2X2_6
*138 AOI21X1_24
*139 OAI21X1_54
*140 INVX1_41
*141 AOI21X1_22
*142 OAI21X1_52
*143 NOR2X1_4
*144 NAND2X1_3
*145 NOR2X1_5
*146 FILL_3_0_0
*147 FILL_3_0_1
*148 FILL_3_0_2
*149 OR2X2_4
*150 OAI21X1_50
*151 AOI21X1_20
*152 DFFPOSX1_53
*153 BUFX4_10
*154 NAND2X1_27
*155 BUFX4_8
*156 DFFPOSX1_18
*157 INVX1_11
*158 NAND3X1_9
*159 NOR3X1_1
*160 INVX1_1
*161 BUFX4_2
*162 NOR2X1_15
*163 FILL_3_1_0
*164 FILL_3_1_1
*165 FILL_3_1_2
*166 DFFPOSX1_4
*167 OAI21X1_3
*168 OAI21X1_4
*169 XNOR2X1_1
*170 NOR2X1_17
*171 NOR2X1_19
*172 NOR2X1_18
*173 OAI21X1_6
*174 AOI21X1_3
*175 AOI21X1_2
*176 NAND2X1_8
*177 INVX2_5
*178 XNOR2X1_2
*179 DFFPOSX1_22
*180 DFFPOSX1_56
*181 AOI21X1_23
*182 NAND2X1_30
*183 INVX1_42
*184 DFFPOSX1_48
*185 NOR2X1_32
*186 OAI21X1_53
*187 NOR2X1_6
*188 FILL_4_0_0
*189 FILL_4_0_1
*190 FILL_4_0_2
*191 OR2X2_3
*192 AOI21X1_19
*193 OAI21X1_49
*194 DFFPOSX1_52
*195 INVX1_7
*196 AOI22X1_6
*197 OAI21X1_26
*198 DFFPOSX1_15
*199 NAND2X1_7
*200 OAI21X1_29
*201 AOI22X1_8
*202 OAI21X1_30
*203 DFFPOSX1_17
*204 FILL_4_1_0
*205 FILL_4_1_1
*206 FILL_4_1_2
*207 BUFX4_3
*208 INVX8_1
*209 OAI22X1_1
*210 DFFPOSX1_3
*211 INVX2_3
*212 OAI21X1_7
*213 OAI21X1_8
*214 OAI22X1_3
*215 DFFPOSX1_5
*216 FILL_5_1
*217 FILL_5_2
*218 BUFX2_6
*219 BUFX2_7
*220 INVX1_21
*221 DFFPOSX1_23
*222 INVX1_23
*223 BUFX4_4
*224 INVX1_24
*225 DFFPOSX1_42
*226 DFFPOSX1_50
*227 FILL_5_0_0
*228 FILL_5_0_1
*229 FILL_5_0_2
*230 AOI21X1_18
*231 OAI21X1_48
*232 DFFPOSX1_14
*233 OAI21X1_24
*234 OAI21X1_23
*235 NAND3X1_6
*236 INVX1_8
*237 OAI21X1_25
*238 NAND3X1_7
*239 INVX1_9
*240 OAI21X1_27
*241 NAND3X1_8
*242 INVX1_10
*243 BUFX4_5
*244 NAND3X1_10
*245 AND2X2_5
*246 BUFX4_1
*247 DFFPOSX1_29
*248 FILL_5_1_0
*249 FILL_5_1_1
*250 FILL_5_1_2
*251 BUFX2_1
*252 INVX1_15
*253 OAI21X1_35
*254 INVX2_8
*255 AOI21X1_8
*256 DFFPOSX1_37
*257 DFFPOSX1_47
*258 DFFPOSX1_46
*259 BUFX2_5
*260 DFFPOSX1_21
*261 MUX2X1_5
*262 MUX2X1_6
*263 BUFX4_9
*264 MUX2X1_13
*265 MUX2X1_14
*266 DFFPOSX1_49
*267 FILL_6_0_0
*268 FILL_6_0_1
*269 FILL_6_0_2
*270 OAI21X1_47
*271 AOI21X1_17
*272 NOR2X1_3
*273 BUFX4_7
*274 NAND2X1_29
*275 NAND3X1_13
*276 AOI22X1_5
*277 DFFPOSX1_51
*278 AOI22X1_7
*279 OAI21X1_28
*280 DFFPOSX1_16
*281 NAND2X1_26
*282 NOR2X1_28
*283 AOI21X1_6
*284 NOR2X1_26
*285 AOI21X1_7
*286 FILL_6_1_0
*287 FILL_6_1_1
*288 FILL_6_1_2
*289 NAND2X1_20
*290 NAND2X1_25
*291 OAI21X1_44
*292 OAI21X1_43
*293 NOR2X1_27
*294 NAND2X1_12
*295 AOI21X1_16
*296 INVX1_39
*297 OAI21X1_46
*298 NOR2X1_29
*299 INVX1_16
*300 AOI21X1_14
*301 DFFPOSX1_36
*302 FILL_7_1
*303 FILL_7_2
*304 INVX1_19
*305 MUX2X1_4
*306 DFFPOSX1_39
*307 INVX1_18
*308 MUX2X1_11
*309 MUX2X1_12
*310 INVX1_22
*311 DFFPOSX1_41
*312 INVX1_26
*313 FILL_7_0_0
*314 FILL_7_0_1
*315 FILL_7_0_2
*316 DFFPOSX1_43
*317 INVX1_40
*318 NAND2X1_28
*319 NAND2X1_2
*320 NOR2X1_2
*321 DFFPOSX1_28
*322 MUX2X1_17
*323 NAND2X1_15
*324 NOR2X1_25
*325 NAND2X1_18
*326 OAI21X1_34
*327 NOR3X1_2
*328 NOR2X1_31
*329 NAND2X1_14
*330 NAND3X1_11
*331 INVX1_32
*332 DFFPOSX1_35
*333 FILL_7_1_0
*334 FILL_7_1_1
*335 FILL_7_1_2
*336 INVX2_7
*337 AOI21X1_13
*338 NAND2X1_24
*339 NAND2X1_23
*340 NOR2X1_22
*341 NOR2X1_30
*342 INVX1_38
*343 NAND2X1_13
*344 NAND2X1_19
*345 INVX1_33
*346 AOI21X1_15
*347 NAND3X1_12
*348 OAI21X1_45
*349 MUX2X1_1
*350 FILL_8_1
*351 FILL_8_2
*352 FILL_8_3
*353 BUFX2_4
*354 INVX1_17
*355 MUX2X1_3
*356 INVX1_20
*357 DFFPOSX1_40
*358 MUX2X1_10
*359 INVX1_14
*360 DFFPOSX1_38
*361 DFFPOSX1_44
*362 FILL_8_0_0
*363 FILL_8_0_1
*364 FILL_8_0_2
*365 INVX1_28
*366 MUX2X1_15
*367 MUX2X1_16
*368 INVX1_29
*369 MUX2X1_9
*370 INVX1_30
*371 DFFPOSX1_45
*372 OAI21X1_33
*373 NAND2X1_17
*374 BUFX2_11
*375 DFFPOSX1_27
*376 NAND2X1_22
*377 AOI21X1_12
*378 OAI21X1_40
*379 INVX1_37
*380 OAI21X1_41
*381 FILL_8_1_0
*382 FILL_8_1_1
*383 FILL_8_1_2
*384 OAI21X1_39
*385 INVX1_36
*386 AOI21X1_11
*387 OAI21X1_38
*388 AND2X2_6
*389 OAI21X1_42
*390 OAI22X1_6
*391 INVX1_34
*392 AND2X2_4
*393 OAI21X1_37
*394 AOI21X1_10
*395 OAI21X1_36
*396 AOI21X1_9
*397 INVX1_35
*398 FILL_9_1
*399 FILL_9_2
*400 DFFPOSX1_20
*401 BUFX2_3
*402 DFFPOSX1_19
*403 INVX1_13
*404 MUX2X1_2
*405 BUFX2_9
*406 DFFPOSX1_25
*407 INVX1_27
*408 FILL_9_0_0
*409 FILL_9_0_1
*410 FILL_9_0_2
*411 MUX2X1_8
*412 DFFPOSX1_26
*413 BUFX2_10
*414 MUX2X1_7
*415 INVX1_25
*416 DFFPOSX1_24
*417 BUFX2_8
*418 INVX1_31
*419 NAND2X1_16
*420 BUFX2_2
*421 DFFPOSX1_33
*422 DFFPOSX1_32
*423 NOR2X1_24
*424 FILL_9_1_0
*425 FILL_9_1_1
*426 FILL_9_1_2
*427 AND2X2_3
*428 NAND2X1_21
*429 DFFPOSX1_34
*430 OR2X2_2
*431 NOR2X1_23
*432 DFFPOSX1_31
*433 DFFPOSX1_30
*434 AND2X2_7
*435 _13_
*436 _13__bF$buf3
*437 _13__bF$buf2
*438 _13__bF$buf1
*439 _13__bF$buf0
*440 clk
*441 clk_bF$buf6
*442 clk_bF$buf5
*443 clk_bF$buf4
*444 clk_bF$buf3
*445 clk_bF$buf2
*446 clk_bF$buf1
*447 clk_bF$buf0
*448 reset
*449 _233_
*450 tx_wr
*451 _14_
*452 tx_bitcount<1>
*453 _15_
*454 tx_bitcount<3>
*455 _16_
*456 tx_bitcount<2>
*457 _17_
*458 _18_
*459 _19_
*460 tx_bitcount<0>
*461 _20_
*462 enable16_counter<3>
*463 enable16_counter<2>
*464 _21_
*465 enable16_counter<1>
*466 enable16_counter<0>
*467 _22_
*468 _23_
*469 enable16_counter<4>
*470 enable16_counter<7>
*471 _24_
*472 enable16_counter<5>
*473 enable16_counter<6>
*474 _25_
*475 _26_
*476 _27_
*477 enable16_counter<8>
*478 enable16_counter<11>
*479 _28_
*480 enable16_counter<9>
*481 enable16_counter<10>
*482 _29_
*483 _30_
*484 enable16_counter<15>
*485 enable16_counter<12>
*486 _31_
*487 enable16_counter<14>
*488 enable16_counter<13>
*489 _32_
*490 _33_
*491 _34_
*492 _35_
*493 tx_count16<1>
*494 tx_count16<0>
*495 _36_
*496 tx_count16<3>
*497 tx_count16<2>
*498 _37_
*499 _38_
*500 _39_
*501 _40_
*502 _9_
*503 _41_
*504 _42_
*505 _43_
*506 _44_
*507 _45_
*508 _46_
*509 _47_
*510 _8_<0>
*511 _48_
*512 _49_
*513 _50_
*514 _51_
*515 _52_
*516 _53_
*517 _54_
*518 _8_<1>
*519 _55_
*520 _56_
*521 _57_
*522 _58_
*523 _59_
*524 _60_
*525 _61_
*526 _8_<2>
*527 _62_
*528 _63_
*529 _64_
*530 _65_
*531 _8_<3>
*532 _66_
*533 _67_
*534 _68_
*535 _69_
*536 _70_
*537 _10_<0>
*538 _71_
*539 _72_
*540 _73_
*541 _74_
*542 _10_<1>
*543 _75_
*544 _76_
*545 _77_
*546 _10_<2>
*547 _78_
*548 _79_
*549 _80_
*550 _81_
*551 _82_
*552 _10_<3>
*553 _83_
*554 txd_reg<1>
*555 _84_
*556 _85_
*557 txd_reg<0>
*558 _86_
*559 tx_data<0>
*560 _87_
*561 _11_<0>
*562 txd_reg<2>
*563 _88_
*564 _89_
*565 _90_
*566 tx_data<1>
*567 _91_
*568 _11_<1>
*569 txd_reg<3>
*570 _92_
*571 _93_
*572 _94_
*573 tx_data<2>
*574 _95_
*575 _11_<2>
*576 txd_reg<4>
*577 _96_
*578 _97_
*579 _98_
*580 tx_data<3>
*581 _99_
*582 _11_<3>
*583 txd_reg<5>
*584 _100_
*585 _101_
*586 _102_
*587 tx_data<4>
*588 _103_
*589 _11_<4>
*590 txd_reg<6>
*591 _104_
*592 _105_
*593 _106_
*594 tx_data<5>
*595 _107_
*596 _11_<5>
*597 txd_reg<7>
*598 _108_
*599 _109_
*600 _110_
*601 tx_data<6>
*602 _111_
*603 _11_<6>
*604 tx_data<7>
*605 _112_
*606 _113_
*607 _114_
*608 _11_<7>
*609 _231_<0>
*610 _115_
*611 rxd_reg<0>
*612 _116_
*613 uart_rxd2
*614 _117_
*615 rx_busy
*616 _118_
*617 rx_bitcount<2>
*618 _119_
*619 rx_bitcount<1>
*620 _120_
*621 _121_
*622 rx_bitcount<3>
*623 rx_bitcount<0>
*624 _122_
*625 _123_
*626 rx_count16<1>
*627 rx_count16<0>
*628 _124_
*629 rx_count16<3>
*630 rx_count16<2>
*631 _125_
*632 _126_
*633 _127_
*634 _128_
*635 _129_
*636 _5_<0>
*637 _231_<1>
*638 _130_
*639 rxd_reg<1>
*640 _131_
*641 _5_<1>
*642 _231_<2>
*643 _132_
*644 rxd_reg<2>
*645 _133_
*646 _5_<2>
*647 _231_<3>
*648 _134_
*649 rxd_reg<3>
*650 _135_
*651 _5_<3>
*652 _231_<4>
*653 _136_
*654 rxd_reg<4>
*655 _137_
*656 _5_<4>
*657 _231_<5>
*658 _138_
*659 rxd_reg<5>
*660 _139_
*661 _5_<5>
*662 _231_<6>
*663 _140_
*664 rxd_reg<6>
*665 _141_
*666 _5_<6>
*667 _231_<7>
*668 _142_
*669 rxd_reg<7>
*670 _143_
*671 _5_<7>
*672 rx_ack
*673 _144_
*674 _230_
*675 _145_
*676 _1_
*677 _232_
*678 _146_
*679 _147_
*680 _148_
*681 _6_
*682 _149_
*683 _150_
*684 _151_
*685 _152_
*686 _153_
*687 _154_
*688 _155_
*689 _156_
*690 _157_
*691 _158_
*692 _159_
*693 _3_
*694 _160_
*695 _161_
*696 _162_
*697 _4_<0>
*698 _163_
*699 _164_
*700 _165_
*701 _4_<1>
*702 _166_
*703 _167_
*704 _168_
*705 _169_
*706 _4_<2>
*707 _170_
*708 _171_
*709 _172_
*710 _173_
*711 _4_<3>
*712 _174_
*713 _175_
*714 _176_
*715 _177_
*716 _178_
*717 _179_
*718 _2_<0>
*719 _180_
*720 _181_
*721 _182_
*722 _183_
*723 _2_<1>
*724 _184_
*725 _185_
*726 _186_
*727 _187_
*728 _188_
*729 _2_<2>
*730 _189_
*731 _190_
*732 _191_
*733 _2_<3>
*734 _192_
*735 _193_
*736 _7_<0>
*737 _7_<1>
*738 _7_<2>
*739 _7_<3>
*740 _7_<4>
*741 _7_<5>
*742 _7_<6>
*743 _7_<7>
*744 _194_
*745 _0_<0>
*746 _195_
*747 _0_<1>
*748 _196_
*749 _197_
*750 _198_
*751 _0_<2>
*752 _199_
*753 _0_<3>
*754 _200_
*755 _0_<4>
*756 _201_
*757 _202_
*758 _203_
*759 _0_<5>
*760 _204_
*761 _205_
*762 _0_<6>
*763 _206_
*764 _207_
*765 _0_<7>
*766 _208_
*767 _209_
*768 _210_
*769 _0_<8>
*770 _211_
*771 _212_
*772 _0_<9>
*773 _213_
*774 _214_
*775 _0_<10>
*776 _215_
*777 _216_
*778 _0_<11>
*779 _217_
*780 _218_
*781 _219_
*782 _0_<12>
*783 _220_
*784 _221_
*785 _222_
*786 _0_<13>
*787 _223_
*788 _224_
*789 _0_<14>
*790 _225_
*791 _0_<15>
*792 _226_
*793 _227_
*794 _228_
*795 _234_
*796 _229_
*797 _12_
*798 rx_avail
*799 rx_data<0>
*800 rx_data<1>
*801 rx_data<2>
*802 rx_data<3>
*803 rx_data<4>
*804 rx_data<5>
*805 rx_data<6>
*806 rx_data<7>
*807 rx_error
*808 tx_busy
*809 uart_txd
*810 uart_rxd
*811 uart_rxd1

*D_NET *435 0.49583820999999995

*CONN
*I *208:Y O
*I *251:A I
*I *207:A I
*I *161:A I
*I *246:A I

*CAP
1 *208:Y 0.0
2 *251:A 0.00933171
3 *207:A 0.0139855
4 *161:A 0.0139855
5 *246:A 0.0139855
6 *435:6 0.148224
7 *435:7 0.07884000000000001
8 *435:8 0.009264
9 *435:9 0.029248000000000003
10 *435:10 0.0009140000000000001
11 *435:11 0.01314
12 *435:12 0.16491999999999998

*RES
1 *435:1 *435:2 0.1
2 *435:2 *435:3 0.08
3 *435:3 *435:4 682.6666666666667
4 *435:4 *435:5 0.08
5 *435:5 *435:6 0.1
6 *435:6 *435:7 0.1
7 *435:7 *435:8 320.0
8 *435:8 *435:9 0.08
9 *435:9 *435:10 42.66666666666667
10 *435:10 *435:11 85.33333333333334
11 *435:11 *435:12 2.666666666666667
12 *435:12 *435:13 0.1
13 *435:13 *435:14 53.333333333333336
14 *435:14 *435:15 0.08
15 *435:15 *435:16 0.06
16 *435:16 *435:17 886.6666666666667
17 *435:17 *435:18 0.06

*END

*D_NET *436 1.7529226199999999

*CONN
*I *376:A I
*I *330:A I
*I *275:A I
*I *384:C I
*I *323:A I
*I *325:A I
*I *246:Y O

*CAP
1 *376:A 0.0125
2 *330:A 0.0158812
3 *275:A 0.0158812
4 *384:C 0.0129138
5 *323:A 0.0125
6 *325:A 0.0125
7 *246:Y 0.0
8 *436:8 0.039420000000000004
9 *436:9 0.010512
10 *436:10 0.18396
11 *436:11 0.02628
12 *436:12 0.027791999999999997
13 *436:13 0.11826
14 *436:14 0.01314
15 *436:15 0.157488
16 *436:16 0.02628
17 *436:17 0.194544
18 *436:18 0.01314
19 *436:19 0.02628
20 *436:20 0.055583999999999995
21 *436:21 0.09198
22 *436:22 0.13896

*RES
1 *436:1 *436:2 0.1
2 *436:2 *436:3 160.0
3 *436:3 *436:4 42.66666666666667
4 *436:4 *436:5 746.6666666666667
5 *436:5 *436:6 0.1
6 *436:6 *436:7 0.1
7 *436:7 *436:8 106.66666666666667
8 *436:8 *436:9 0.08
9 *436:9 *436:10 128.0
10 *436:10 *436:11 0.08
11 *436:11 *436:12 480.0
12 *436:12 *436:13 0.1
13 *436:13 *436:14 53.333333333333336
14 *436:14 *436:15 0.08
15 *436:15 *436:16 725.3333333333334
16 *436:16 *436:17 0.08
17 *436:17 *436:18 0.1
18 *436:18 *436:19 106.66666666666667
19 *436:19 *436:20 0.08
20 *436:20 *436:21 896.0000000000001
21 *436:21 *436:22 0.08
22 *436:22 *436:23 53.333333333333336
23 *436:23 *436:24 0.1
24 *436:24 *436:25 106.66666666666667
25 *436:25 *436:26 0.08
26 *436:26 *436:27 256.0
27 *436:27 *436:28 0.1
28 *436:28 *436:29 373.33333333333337
29 *436:29 *436:30 0.08
30 *436:30 *436:31 640.0

*END

*D_NET *437 2.7201141200000003

*CONN
*I *113:A I
*I *61:C I
*I *69:C I
*I *154:A I
*I *65:B I
*I *67:C I
*I *161:Y O

*CAP
1 *113:A 0.017346
2 *61:C 0.0129138
3 *69:C 0.0129138
4 *154:A 0.0125
5 *65:B 0.0125119
6 *67:C 0.0129138
7 *161:Y 0.0
8 *437:8 0.010512
9 *437:9 0.06570000000000001
10 *437:10 0.14454
11 *437:11 0.055583999999999995
12 *437:12 0.01314
13 *437:13 0.074112
14 *437:14 0.194544
15 *437:15 0.23652
16 *437:16 0.009264

*RES
1 *437:1 *437:2 0.1
2 *437:2 *437:3 42.66666666666667
3 *437:3 *437:4 266.6666666666667
4 *437:4 *437:5 0.1
5 *437:5 *437:6 0.1
6 *437:6 *437:7 586.6666666666667
7 *437:7 *437:8 0.1
8 *437:8 *437:9 0.08
9 *437:9 *437:10 256.0
10 *437:10 *437:11 0.08
11 *437:11 *437:12 0.1
12 *437:12 *437:13 53.333333333333336
13 *437:13 *437:14 0.08
14 *437:14 *437:15 341.33333333333337
15 *437:15 *437:16 0.1
16 *437:16 *437:17 0.08
17 *437:17 *437:18 896.0000000000001
18 *437:18 *437:19 0.1
19 *437:19 *437:20 960.0
20 *437:20 *437:21 0.08
21 *437:21 *437:22 42.66666666666667

*END

*D_NET *438 4.24633292

*CONN
*I *214:A I
*I *209:A I
*I *130:A I
*I *83:A I
*I *125:A I
*I *71:A I
*I *207:Y O

*CAP
1 *214:A 0.0173495
2 *209:A 0.0173495
3 *130:A 0.0173495
4 *83:A 0.0173495
5 *125:A 0.0173495
6 *71:A 0.0125
7 *207:Y 0.0
8 *438:8 0.074112
9 *438:9 0.01314
10 *438:10 0.28718399999999994
11 *438:11 0.01314
12 *438:12 0.05256
13 *438:13 0.010512
14 *438:14 0.1971
15 *438:15 0.148224
16 *438:16 0.17082
17 *438:17 0.009264
18 *438:18 0.28644000000000003
19 *438:19 0.08337599999999999

*RES
1 *438:1 *438:2 0.1
2 *438:2 *438:3 0.08
3 *438:3 *438:4 341.33333333333337
4 *438:4 *438:5 0.08
5 *438:5 *438:6 0.1
6 *438:6 *438:7 0.1
7 *438:7 *438:8 53.333333333333336
8 *438:8 *438:9 0.08
9 *438:9 *438:10 1322.6666666666667
10 *438:10 *438:11 0.08
11 *438:11 *438:12 53.333333333333336
12 *438:12 *438:13 0.1
13 *438:13 *438:14 213.33333333333334
14 *438:14 *438:15 42.66666666666667
15 *438:15 *438:16 800.0
16 *438:16 *438:17 0.08
17 *438:17 *438:18 0.1
18 *438:18 *438:19 0.08
19 *438:19 *438:20 682.6666666666667
20 *438:20 *438:21 0.08
21 *438:21 *438:22 0.1
22 *438:22 *438:23 693.3333333333334
23 *438:23 *438:24 0.08
24 *438:24 *438:25 0.1
25 *438:25 *438:26 0.08
26 *438:26 *438:27 42.66666666666667
27 *438:27 *438:28 0.06
28 *438:28 *438:29 1540.0000000000002
29 *438:29 *438:30 0.06
30 *438:30 *438:31 384.0

*END

*D_NET *439 5.233909820000002

*CONN
*I *395:C I
*I *290:A I
*I *289:A I
*I *393:C I
*I *348:C I
*I *251:Y O

*CAP
1 *395:C 0.0129138
2 *290:A 0.0125
3 *289:A 0.0125
4 *393:C 0.0129138
5 *348:C 0.0129138
6 *251:Y 0.0
7 *439:7 0.010512
8 *439:8 0.10512
9 *439:9 0.014624000000000002
10 *439:10 0.361296
11 *439:11 0.11826
12 *439:12 0.11826
13 *439:13 0.009264
14 *439:14 0.01314
15 *439:15 0.074112

*RES
1 *439:1 *439:2 0.1
2 *439:2 *439:3 42.66666666666667
3 *439:3 *439:4 426.6666666666667
4 *439:4 *439:5 0.1
5 *439:5 *439:6 42.66666666666667
6 *439:6 *439:7 0.1
7 *439:7 *439:8 0.08
8 *439:8 *439:9 1664.0
9 *439:9 *439:10 0.08
10 *439:10 *439:11 480.0
11 *439:11 *439:12 0.1
12 *439:12 *439:13 480.0
13 *439:13 *439:14 0.08
14 *439:14 *439:15 42.66666666666667
15 *439:15 *439:16 0.1
16 *439:16 *439:17 53.333333333333336
17 *439:17 *439:18 0.08
18 *439:18 *439:19 341.33333333333337
19 *439:19 *439:20 0.08

*END

*D_NET *440 7.397538820000004

*CONN
*P *440 I
*I *153:A I
*I *263:A I
*I *155:A I
*I *273:A I
*I *88:A I
*I *243:A I
*I *223:A I

*CAP
1 *153:A 0.0139855
2 *263:A 0.0139855
3 *155:A 0.0139855
4 *273:A 0.0139855
5 *88:A 0.0139855
6 *243:A 0.0139855
7 *223:A 0.0139855
8 *440:8 0.02628
9 *440:9 0.018528
10 *440:10 0.11826
11 *440:11 0.02628
12 *440:12 0.389088
13 *440:13 0.014624000000000002
14 *440:14 0.17082
15 *440:15 0.157488
16 *440:16 0.21024
17 *440:17 0.027791999999999997
18 *440:18 0.05256
19 *440:19 0.21307199999999998
20 *440:20 0.039420000000000004
21 *440:21 0.0184701
22 *440:22 0.18228
23 *440:23 0.2316
24 *440:24 0.10512

*RES
1 *440:1 *440:2 0.1
2 *440:2 *440:3 106.66666666666667
3 *440:3 *440:4 0.08
4 *440:4 *440:5 85.33333333333334
5 *440:5 *440:6 0.08
6 *440:6 *440:7 480.0
7 *440:7 *440:8 0.1
8 *440:8 *440:9 0.1
9 *440:9 *440:10 106.66666666666667
10 *440:10 *440:11 0.08
11 *440:11 *440:12 1792.0000000000002
12 *440:12 *440:13 42.66666666666667
13 *440:13 *440:14 0.1
14 *440:14 *440:15 693.3333333333334
15 *440:15 *440:16 0.08
16 *440:16 *440:17 725.3333333333334
17 *440:17 *440:18 0.08
18 *440:18 *440:19 853.3333333333334
19 *440:19 *440:20 0.1
20 *440:20 *440:21 0.08
21 *440:21 *440:22 128.0
22 *440:22 *440:23 0.08
23 *440:23 *440:24 0.1
24 *440:24 *440:25 213.33333333333334
25 *440:25 *440:26 0.08
26 *440:26 *440:27 981.3333333333335
27 *440:27 *440:28 0.08
28 *440:28 *440:29 160.0
29 *440:29 *440:30 85.06666666666666
30 *440:30 *440:31 0.06
31 *440:31 *440:32 980.0
32 *440:32 *440:33 0.06
33 *440:33 *440:34 1066.6666666666667
34 *440:34 *440:35 0.08
35 *440:35 *440:36 426.6666666666667
36 *440:36 *440:37 0.1
37 *440:37 *440:38 0.08

*END

*D_NET *441 8.798800820000006

*CONN
*I *133:CLK I
*I *225:CLK I
*I *226:CLK I
*I *180:CLK I
*I *184:CLK I
*I *266:CLK I
*I *179:CLK I
*I *260:CLK I
*I *221:CLK I
*I *223:Y O

*CAP
1 *133:CLK 0.0279235
2 *225:CLK 0.0279235
3 *226:CLK 0.0279235
4 *180:CLK 0.0279235
5 *184:CLK 0.0279235
6 *266:CLK 0.0279235
7 *179:CLK 0.0279235
8 *260:CLK 0.0279235
9 *221:CLK 0.0279235
10 *223:Y 0.0
11 *441:11 0.09198
12 *441:12 0.014624000000000002
13 *441:13 0.07884000000000001
14 *441:14 0.0009140000000000001
15 *441:15 0.13140000000000002
16 *441:16 0.006398000000000001
17 *441:17 0.13140000000000002
18 *441:18 0.17082
19 *441:19 0.09263999999999999
20 *441:20 0.01314
21 *441:21 0.06570000000000001
22 *441:22 0.01314
23 *441:23 0.08337599999999999
24 *441:24 0.15768000000000001

*RES
1 *441:1 *441:2 0.1
2 *441:2 *441:3 373.33333333333337
3 *441:3 *441:4 0.1
4 *441:4 *441:5 42.66666666666667
5 *441:5 *441:6 0.1
6 *441:6 *441:7 320.0
7 *441:7 *441:8 0.1
8 *441:8 *441:9 2.666666666666667
9 *441:9 *441:10 0.1
10 *441:10 *441:11 533.3333333333334
11 *441:11 *441:12 0.1
12 *441:12 *441:13 18.666666666666668
13 *441:13 *441:14 0.1
14 *441:14 *441:15 533.3333333333334
15 *441:15 *441:16 0.1
16 *441:16 *441:17 693.3333333333334
17 *441:17 *441:18 0.1
18 *441:18 *441:19 0.08
19 *441:19 *441:20 426.6666666666667
20 *441:20 *441:21 0.08
21 *441:21 *441:22 53.333333333333336
22 *441:22 *441:23 0.1
23 *441:23 *441:24 266.6666666666667
24 *441:24 *441:25 0.1
25 *441:25 *441:26 0.1
26 *441:26 *441:27 53.333333333333336
27 *441:27 *441:28 0.08
28 *441:28 *441:29 384.0
29 *441:29 *441:30 0.1
30 *441:30 *441:31 640.0
31 *441:31 *441:32 0.1

*END

*D_NET *442 11.288287820000006

*CONN
*I *257:CLK I
*I *258:CLK I
*I *433:CLK I
*I *301:CLK I
*I *432:CLK I
*I *332:CLK I
*I *422:CLK I
*I *256:CLK I
*I *429:CLK I
*I *243:Y O

*CAP
1 *257:CLK 0.0279235
2 *258:CLK 0.0279235
3 *433:CLK 0.0279235
4 *301:CLK 0.0279235
5 *432:CLK 0.0279235
6 *332:CLK 0.0279235
7 *422:CLK 0.0279235
8 *256:CLK 0.0279235
9 *429:CLK 0.0279235
10 *243:Y 0.0
11 *442:11 0.039420000000000004
12 *442:12 0.157488
13 *442:13 0.15768000000000001
14 *442:14 0.039420000000000004
15 *442:15 0.037056
16 *442:16 0.22338000000000002
17 *442:17 0.01314
18 *442:18 0.157488
19 *442:19 0.02628
20 *442:20 0.01314
21 *442:21 0.22233599999999998
22 *442:22 0.01314
23 *442:23 0.11116799999999999
24 *442:24 0.11826
25 *442:25 0.037056
26 *442:26 0.21024
27 *442:27 0.18396
28 *442:28 0.074112
29 *442:29 0.01314
30 *442:30 0.13896

*RES
1 *442:1 *442:2 0.1
2 *442:2 *442:3 160.0
3 *442:3 *442:4 0.08
4 *442:4 *442:5 725.3333333333334
5 *442:5 *442:6 0.08
6 *442:6 *442:7 640.0
7 *442:7 *442:8 0.1
8 *442:8 *442:9 0.1
9 *442:9 *442:10 160.0
10 *442:10 *442:11 0.08
11 *442:11 *442:12 170.66666666666669
12 *442:12 *442:13 0.08
13 *442:13 *442:14 906.6666666666667
14 *442:14 *442:15 0.1
15 *442:15 *442:16 53.333333333333336
16 *442:16 *442:17 0.08
17 *442:17 *442:18 725.3333333333334
18 *442:18 *442:19 0.08
19 *442:19 *442:20 106.66666666666667
20 *442:20 *442:21 0.1
21 *442:21 *442:22 53.333333333333336
22 *442:22 *442:23 0.08
23 *442:23 *442:24 1024.0
24 *442:24 *442:25 0.1
25 *442:25 *442:26 53.333333333333336
26 *442:26 *442:27 0.08
27 *442:27 *442:28 512.0
28 *442:28 *442:29 0.1
29 *442:29 *442:30 480.0
30 *442:30 *442:31 0.08
31 *442:31 *442:32 170.66666666666669
32 *442:32 *442:33 0.08
33 *442:33 *442:34 853.3333333333334
34 *442:34 *442:35 0.1
35 *442:35 *442:36 746.6666666666667
36 *442:36 *442:37 0.1
37 *442:37 *442:38 0.08
38 *442:38 *442:39 341.33333333333337
39 *442:39 *442:40 0.08
40 *442:40 *442:41 0.1
41 *442:41 *442:42 53.333333333333336
42 *442:42 *442:43 0.08
43 *442:43 *442:44 640.0

*END

*D_NET *443 12.902772820000003

*CONN
*I *96:CLK I
*I *9:CLK I
*I *100:CLK I
*I *39:CLK I
*I *54:CLK I
*I *8:CLK I
*I *1:CLK I
*I *13:CLK I
*I *89:CLK I
*I *88:Y O

*CAP
1 *96:CLK 0.0279235
2 *9:CLK 0.0279235
3 *100:CLK 0.0279235
4 *39:CLK 0.0279235
5 *54:CLK 0.0279235
6 *8:CLK 0.0279235
7 *1:CLK 0.0279235
8 *13:CLK 0.0279235
9 *89:CLK 0.0279235
10 *88:Y 0.0
11 *443:11 0.0009140000000000001
12 *443:12 0.029248000000000003
13 *443:13 0.15768000000000001
14 *443:14 0.06570000000000001
15 *443:15 0.27792
16 *443:16 0.0009140000000000001
17 *443:17 0.11116799999999999
18 *443:18 0.10512
19 *443:19 0.029248000000000003
20 *443:20 0.0009140000000000001
21 *443:21 0.14454
22 *443:22 0.09198
23 *443:23 0.08337599999999999
24 *443:24 0.01314

*RES
1 *443:1 *443:2 2.666666666666667
2 *443:2 *443:3 85.33333333333334
3 *443:3 *443:4 0.1
4 *443:4 *443:5 640.0
5 *443:5 *443:6 0.1
6 *443:6 *443:7 0.1
7 *443:7 *443:8 266.6666666666667
8 *443:8 *443:9 0.1
9 *443:9 *443:10 0.1
10 *443:10 *443:11 0.08
11 *443:11 *443:12 1280.0
12 *443:12 *443:13 0.08
13 *443:13 *443:14 0.1
14 *443:14 *443:15 2.666666666666667
15 *443:15 *443:16 0.1
16 *443:16 *443:17 0.08
17 *443:17 *443:18 512.0
18 *443:18 *443:19 0.1
19 *443:19 *443:20 426.6666666666667
20 *443:20 *443:21 0.1
21 *443:21 *443:22 85.33333333333334
22 *443:22 *443:23 2.666666666666667
23 *443:23 *443:24 0.1
24 *443:24 *443:25 586.6666666666667
25 *443:25 *443:26 0.1
26 *443:26 *443:27 373.33333333333337
27 *443:27 *443:28 0.1
28 *443:28 *443:29 0.1
29 *443:29 *443:30 0.08
30 *443:30 *443:31 384.0
31 *443:31 *443:32 0.08
32 *443:32 *443:33 53.333333333333336

*END

*D_NET *444 15.019539820000002

*CONN
*I *277:CLK I
*I *371:CLK I
*I *280:CLK I
*I *375:CLK I
*I *232:CLK I
*I *321:CLK I
*I *416:CLK I
*I *412:CLK I
*I *421:CLK I
*I *273:Y O

*CAP
1 *277:CLK 0.0279235
2 *371:CLK 0.0279235
3 *280:CLK 0.0279235
4 *375:CLK 0.0279235
5 *232:CLK 0.0279235
6 *321:CLK 0.0279235
7 *416:CLK 0.0279235
8 *412:CLK 0.0279235
9 *421:CLK 0.0279235
10 *273:Y 0.0
11 *444:11 0.10512
12 *444:12 0.055583999999999995
13 *444:13 0.06570000000000001
14 *444:14 0.26280000000000003
15 *444:15 0.22338000000000002
16 *444:16 0.006398000000000001
17 *444:17 0.09198
18 *444:18 0.002742
19 *444:19 0.014624000000000002
20 *444:20 0.27594
21 *444:21 0.16675199999999998
22 *444:22 0.07884000000000001
23 *444:23 0.24966
24 *444:24 0.014624000000000002

*RES
1 *444:1 *444:2 0.1
2 *444:2 *444:3 426.6666666666667
3 *444:3 *444:4 0.1
4 *444:4 *444:5 0.1
5 *444:5 *444:6 0.08
6 *444:6 *444:7 256.0
7 *444:7 *444:8 0.08
8 *444:8 *444:9 266.6666666666667
9 *444:9 *444:10 0.1
10 *444:10 *444:11 0.1
11 *444:11 *444:12 1066.6666666666667
12 *444:12 *444:13 0.1
13 *444:13 *444:14 906.6666666666667
14 *444:14 *444:15 0.1
15 *444:15 *444:16 18.666666666666668
16 *444:16 *444:17 0.1
17 *444:17 *444:18 373.33333333333337
18 *444:18 *444:19 0.1
19 *444:19 *444:20 8.0
20 *444:20 *444:21 42.66666666666667
21 *444:21 *444:22 0.1
22 *444:22 *444:23 1120.0
23 *444:23 *444:24 0.1
24 *444:24 *444:25 0.08
25 *444:25 *444:26 768.0
26 *444:26 *444:27 0.08
27 *444:27 *444:28 0.1
28 *444:28 *444:29 320.0
29 *444:29 *444:30 0.1
30 *444:30 *444:31 0.1
31 *444:31 *444:32 1013.3333333333334
32 *444:32 *444:33 0.1
33 *444:33 *444:34 42.66666666666667

*END

*D_NET *445 17.430238820000003

*CONN
*I *85:CLK I
*I *210:CLK I
*I *18:CLK I
*I *37:CLK I
*I *21:CLK I
*I *215:CLK I
*I *28:CLK I
*I *79:CLK I
*I *62:CLK I
*I *155:Y O

*CAP
1 *85:CLK 0.0279235
2 *210:CLK 0.0279235
3 *18:CLK 0.0279235
4 *37:CLK 0.0279235
5 *21:CLK 0.0279235
6 *215:CLK 0.0279235
7 *28:CLK 0.0279235
8 *79:CLK 0.0279235
9 *62:CLK 0.0279235
10 *155:Y 0.0
11 *445:11 0.02628
12 *445:12 0.010512
13 *445:13 0.21024
14 *445:14 0.10512
15 *445:15 0.129696
16 *445:16 0.02628
17 *445:17 0.18527999999999997
18 *445:18 0.02628
19 *445:19 0.0009140000000000001
20 *445:20 0.09263999999999999
21 *445:21 0.09198
22 *445:22 0.0009140000000000001
23 *445:23 0.268656
24 *445:24 0.07884000000000001
25 *445:25 0.42048
26 *445:26 0.039420000000000004
27 *445:27 0.194544

*RES
1 *445:1 *445:2 0.1
2 *445:2 *445:3 106.66666666666667
3 *445:3 *445:4 42.66666666666667
4 *445:4 *445:5 853.3333333333334
5 *445:5 *445:6 0.1
6 *445:6 *445:7 0.1
7 *445:7 *445:8 426.6666666666667
8 *445:8 *445:9 0.1
9 *445:9 *445:10 0.08
10 *445:10 *445:11 597.3333333333334
11 *445:11 *445:12 0.08
12 *445:12 *445:13 0.1
13 *445:13 *445:14 106.66666666666667
14 *445:14 *445:15 0.08
15 *445:15 *445:16 853.3333333333334
16 *445:16 *445:17 0.08
17 *445:17 *445:18 106.66666666666667
18 *445:18 *445:19 0.1
19 *445:19 *445:20 2.666666666666667
20 *445:20 *445:21 0.1
21 *445:21 *445:22 0.08
22 *445:22 *445:23 426.6666666666667
23 *445:23 *445:24 0.08
24 *445:24 *445:25 373.33333333333337
25 *445:25 *445:26 0.1
26 *445:26 *445:27 2.666666666666667
27 *445:27 *445:28 0.1
28 *445:28 *445:29 0.08
29 *445:29 *445:30 1237.3333333333333
30 *445:30 *445:31 0.1
31 *445:31 *445:32 320.0
32 *445:32 *445:33 0.1
33 *445:33 *445:34 0.1
34 *445:34 *445:35 1706.6666666666667
35 *445:35 *445:36 0.08
36 *445:36 *445:37 0.1
37 *445:37 *445:38 160.0
38 *445:38 *445:39 0.08
39 *445:39 *445:40 896.0000000000001
40 *445:40 *445:41 0.08

*END

*D_NET *446 19.043391820000007

*CONN
*I *357:CLK I
*I *406:CLK I
*I *311:CLK I
*I *361:CLK I
*I *306:CLK I
*I *400:CLK I
*I *402:CLK I
*I *360:CLK I
*I *316:CLK I
*I *263:Y O

*CAP
1 *357:CLK 0.0279235
2 *406:CLK 0.0279235
3 *311:CLK 0.0279235
4 *361:CLK 0.0279235
5 *306:CLK 0.0279235
6 *400:CLK 0.0279235
7 *402:CLK 0.0279235
8 *360:CLK 0.0279235
9 *316:CLK 0.0279235
10 *263:Y 0.0
11 *446:11 0.02628
12 *446:12 0.101904
13 *446:13 0.05256
14 *446:14 0.15768000000000001
15 *446:15 0.0009140000000000001
16 *446:16 0.014624000000000002
17 *446:17 0.0009140000000000001
18 *446:18 0.07884000000000001
19 *446:19 0.02628
20 *446:20 0.129696
21 *446:21 0.11826
22 *446:22 0.006398000000000001
23 *446:23 0.07884000000000001
24 *446:24 0.02628
25 *446:25 0.157488
26 *446:26 0.01314
27 *446:27 0.12043199999999998

*RES
1 *446:1 *446:2 0.1
2 *446:2 *446:3 106.66666666666667
3 *446:3 *446:4 0.08
4 *446:4 *446:5 469.33333333333337
5 *446:5 *446:6 0.08
6 *446:6 *446:7 213.33333333333334
7 *446:7 *446:8 0.1
8 *446:8 *446:9 0.1
9 *446:9 *446:10 640.0
10 *446:10 *446:11 2.666666666666667
11 *446:11 *446:12 42.66666666666667
12 *446:12 *446:13 2.666666666666667
13 *446:13 *446:14 0.1
14 *446:14 *446:15 320.0
15 *446:15 *446:16 0.1
16 *446:16 *446:17 0.1
17 *446:17 *446:18 106.66666666666667
18 *446:18 *446:19 0.08
19 *446:19 *446:20 597.3333333333334
20 *446:20 *446:21 0.1
21 *446:21 *446:22 480.0
22 *446:22 *446:23 0.1
23 *446:23 *446:24 18.666666666666668
24 *446:24 *446:25 0.1
25 *446:25 *446:26 320.0
26 *446:26 *446:27 0.1
27 *446:27 *446:28 0.1
28 *446:28 *446:29 106.66666666666667
29 *446:29 *446:30 0.08
30 *446:30 *446:31 725.3333333333334
31 *446:31 *446:32 0.1
32 *446:32 *446:33 53.333333333333336
33 *446:33 *446:34 0.08
34 *446:34 *446:35 554.6666666666667
35 *446:35 *446:36 0.08

*END

*D_NET *447 20.79463082000001

*CONN
*I *203:CLK I
*I *156:CLK I
*I *119:CLK I
*I *247:CLK I
*I *194:CLK I
*I *198:CLK I
*I *152:CLK I
*I *110:CLK I
*I *166:CLK I
*I *153:Y O

*CAP
1 *203:CLK 0.0279235
2 *156:CLK 0.0279235
3 *119:CLK 0.0279235
4 *247:CLK 0.0279235
5 *194:CLK 0.0279235
6 *198:CLK 0.0279235
7 *152:CLK 0.0279235
8 *110:CLK 0.0279235
9 *166:CLK 0.0279235
10 *153:Y 0.0
11 *447:11 0.0009140000000000001
12 *447:12 0.029248000000000003
13 *447:13 0.17082
14 *447:14 0.12043199999999998